1

   Abaqus 6.14-1                                  Date 08-七月-2025   Time 14:25:55
   For use by Supplied By SSQ under license from Dassault Systemes or its subsidiary.



                         The Abaqus Software is a product of:

                           Dassault Systemes Simulia Corp.
                                 Rising Sun Mills
                                 166 Valley Street
                           Providence, RI 02909-2499, USA
 


                   The Abaqus Software is available only under license
                   from Dassault Systemes or its subsidiary and may be
                   used or reproduced only in accordance with the terms
                   of such license.
 
                          On machine DESKTOP-2KG6NHS 
                          you are authorized to run
                          Abaqus/Standard until 31-Dec-2055

                          Your site id is:  


 
                    For assistance or any other information you may
                    obtain contact information for your local office
                    from the world wide web at:

                      http://www.3ds.com/products/simulia/locations/

 
                * * * * * * * * * * * * * * * * * * * * * * * * * * * * * * 
                *                                                         * 
                *                   *****************                     * 
                *                   *  N O T I C E  *                     * 
                *                   *****************                     * 
                *                                                         * 
                *                                                         * 
                *                    Abaqus 6.14-1                        * 
                *                                                         * 
                *          BUILD ID: 2014_06_05-06.11.02 134264           * 
                *                                                         * 
                *                                                         * 
                *  Please make sure you are using release 6.14 manuals    * 
                *  plus the notes accompanying this release.              * 
                *                                                         * 
                *                                                         * 
                *                                                         * 
                *                                                         * 
                * * * * * * * * * * * * * * * * * * * * * * * * * * * * * * 


 



     PROCESSING PART, INSTANCE, AND ASSEMBLY INFORMATION
   *******************************************************


     END PROCESSING PART, INSTANCE, AND ASSEMBLY INFORMATION
   ***********************************************************




     OPTIONS BEING PROCESSED
   ***************************


  *HEADING
          By Dung-An Wang                                                                                                                                                                                                                                                 
  *NODE, nset=nset_upper
  *NODE, nset=nset_lower
  *NSET, NSET=nset_anchor_upper
  *NSET, NSET=nset_end
  *NSET, NSET=nset_monitor
  *NSET, NSET=nset_anchor_lower
  *NSET, NSET=nset_anchor
  *NSET, NSET=nset_all
  *ELEMENT,TYPE=B21H,ELSET=elset_beamIN
  *ELEMENT,TYPE=B21H,ELSET=elset_beamOU
  *ELSET,ELSET=elset_beam
  *MATERIAL,NAME = POM
  *ELASTIC
  *DENSITY
  *BOUNDARY,op=new
  *BEAM SECTION,SECTION=RECT,ELSET=elset_beamIN,MATERIAL=POM
  *BEAM SECTION,SECTION=RECT,ELSET=elset_beamOU,MATERIAL=POM
  *OUTPUT,field, frequency=1
  *ELEMENT OUTPUT
  *OUTPUT,field, frequency=1
  *ELEMENT OUTPUT
  *OUTPUT,field, frequency=1
  *ELEMENT OUTPUT
  *STEP,INC=9999,NLGEOM,unsymm=yes
  *STEP,INC=9999,NLGEOM,unsymm=yes
  *STEP,INC=9999,NLGEOM,unsymm=yes
  step 1                                                                          
  *STATIC
  *BOUNDARY,op=new
  *monitor,  dof=2, node=nset_monitor, frequency=1
  *NODE PRINT,NSET=nset_anchor,TOTALS=YES,FREQUENCY=1,summary=no
  *NODE PRINT,NSET=nset_monitor,TOTALS=No,FREQUENCY=1,summary=no
  *NODE PRINT,NSET=nset_upper,TOTALS=YES,FREQUENCY=1,summary=yes
  *EL PRINT,ELSET=elset_beam,FREQUENCY=1,totals=no,summary=yes

 ***WARNING: OUTPUT VARIABLE S12 IS NOT A VALID COMPONENT IN THIS ANALYSIS FOR 
             ELEMENT TYPE B21H

 ***WARNING: OUTPUT VARIABLE S13 IS NOT A VALID COMPONENT IN THIS ANALYSIS FOR 
             ELEMENT TYPE B21H
  *ENERGY PRINT,elset=elset_beam,FREQUENCY=1
  *OUTPUT,field, frequency=1
  *ELEMENT OUTPUT
  *NODE output,nset=nset_all
  *END STEP
  *STEP,INC=9999,NLGEOM,unsymm=yes
  *STATIC
  *BOUNDARY,op=new

 ***WARNING: DEGREE OF FREEDOM 3 IS NOT ACTIVE IN THIS MODEL AND CANNOT BE 
             RESTRAINED.

 ***WARNING: DEGREE OF FREEDOM 4 IS NOT ACTIVE IN THIS MODEL AND CANNOT BE 
             RESTRAINED.

 ***WARNING: DEGREE OF FREEDOM 5 IS NOT ACTIVE IN THIS MODEL AND CANNOT BE 
             RESTRAINED.

 ***WARNING: DEGREE OF FREEDOM 3 IS NOT ACTIVE IN THIS MODEL AND CANNOT BE 
             RESTRAINED.

 ***WARNING: DEGREE OF FREEDOM 4 IS NOT ACTIVE IN THIS MODEL AND CANNOT BE 
             RESTRAINED.

 ***WARNING: DEGREE OF FREEDOM 5 IS NOT ACTIVE IN THIS MODEL AND CANNOT BE 
             RESTRAINED.
  *END STEP

 ***WARNING: For 54 beam elements either the average curvature about the local 
             1-direction differs by more than 0.1 degrees per unit length as 
             compared to the default curvature or the approximate integrated 
             curvature for the entire beam differs by more than 5 degrees as 
             compared to the approximate integrated default curvature. This may 
             be due to a user-specified normal or due to the nodal averaging 
             routine used by Abaqus. This difference may cause unexpected 
             behavior of the beam and you may want to verify that the beam 
             normals are correct for your problem. The elements have been 
             identified in element set WarnBeamCurvature1.



                            P R O B L E M   S I Z E


          NUMBER OF ELEMENTS IS                                    80
          NUMBER OF NODES IS                                      162
          NUMBER OF NODES DEFINED BY THE USER                      82
          NUMBER OF INTERNAL NODES GENERATED BY THE PROGRAM        80
          TOTAL NUMBER OF VARIABLES IN THE MODEL                  406
          (DEGREES OF FREEDOM PLUS MAX NO. OF ANY LAGRANGE MULTIPLIER
           VARIABLES. INCLUDE *PRINT,SOLVE=YES TO GET THE ACTUAL NUMBER.)



                              END OF USER INPUT PROCESSING



     JOB TIME SUMMARY
       USER TIME (SEC)      =  0.10000    
       SYSTEM TIME (SEC)    =   0.0000    
       TOTAL CPU TIME (SEC) =  0.10000    
       WALLCLOCK TIME (SEC) =          1
1

   Abaqus 6.14-1                                  Date 08-七月-2025   Time 14:26:00
   For use by Supplied By SSQ under license from Dassault Systemes or its subsidiary.

     By Dung-An Wang                                                                           STEP    1  INCREMENT    1
     step 1                                                                               TIME COMPLETED IN THIS STEP   0.00    


                        S T E P       1     S T A T I C   A N A L Y S I S


          step 1                                                                          

     AUTOMATIC TIME CONTROL WITH -
          A SUGGESTED INITIAL TIME INCREMENT OF                1.000E-04
          AND A TOTAL TIME PERIOD OF                            1.00    
          THE MINIMUM TIME INCREMENT ALLOWED IS                1.000E-10
          THE MAXIMUM TIME INCREMENT ALLOWED IS                1.000E-02

     LINEAR EQUATION SOLVER TYPE         DIRECT SPARSE

          LARGE DISPLACEMENT THEORY WILL BE USED

          UNSYMMETRIC MATRIX STORAGE AND SOLUTION WILL BE USED
  
                   M E M O R Y   E S T I M A T E
  
 PROCESS      FLOATING PT       MINIMUM MEMORY        MEMORY TO
              OPERATIONS           REQUIRED          MINIMIZE I/O
             PER ITERATION           (MB)               (MB)
  
     1         3.90E+004               17                 24
  
 NOTE:
      (1) SINCE ABAQUS DOES NOT PRE-ALLOCATE MEMORY AND ONLY ALLOCATES MEMORY AS NEEDED DURING THE ANALYSIS,
          THE MEMORY REQUIREMENT PRINTED HERE CAN ONLY BE VIEWED AS A GENERAL GUIDELINE BASED ON THE BEST
          KNOWLEDGE AVAILABLE AT THE BEGINNING OF A STEP BEFORE THE SOLUTION PROCESS HAS BEGUN.
      (2) THE ESTIMATE IS NORMALLY UPDATED AT THE BEGINNING OF EVERY STEP. IT IS THE MAXIMUM VALUE OF THE
          ESTIMATE FROM THE CURRENT STEP TO THE LAST STEP OF THE ANALYSIS, WITH UNSYMMETRIC SOLUTION TAKEN
          INTO ACCOUNT IF APPLICABLE. 
      (3) SINCE THE ESTIMATE IS BASED ON THE ACTIVE DEGREES OF FREEDOM IN THE FIRST ITERATION OF THE 
          CURRENT STEP, THE MEMORY ESTIMATE MIGHT BE SIGNIFICANTLY DIFFERENT THAN ACTUAL USAGE FOR 
          PROBLEMS WITH SUBSTANTIAL CHANGES IN ACTIVE DEGREES OF FREEDOM BETWEEN STEPS (OR EVEN WITHIN
          THE SAME STEP). EXAMPLES ARE: PROBLEMS WITH SIGNIFICANT CONTACT CHANGES, PROBLEMS WITH MODEL
          CHANGE, PROBLEMS WITH BOTH STATIC STEP AND STEADY STATE DYNAMIC PROCEDURES WHERE ACOUSTIC 
          ELEMENTS WILL ONLY BE ACTIVATED IN THE STEADY STATE DYNAMIC STEPS.
      (4) FOR MULTI-PROCESS EXECUTION, THE ESTIMATED VALUE OF FLOATING POINT OPERATIONS FOR EACH PROCESS
          IS BASED ON AN INITIAL SCHEDULING OF OPERATIONS AND MIGHT NOT REFLECT THE ACTUAL FLOATING 
          POINT OPERATIONS COMPLETED ON EACH PROCESS. OPERATIONS ARE DYNAMICALLY BALANCED DURING EXECUTION, 
          SO THE ACTUAL BALANCE OF OPERATIONS BETWEEN PROCESSES IS EXPECTED TO BE BETTER THAN THE ESTIMATE
          PRINTED HERE.
      (5) THE UPPER LIMIT OF MEMORY THAT CAN BE ALLOCATED BY ABAQUS WILL IN GENERAL DEPEND ON THE VALUE OF
          THE "MEMORY" PARAMETER AND THE AMOUNT OF PHYSICAL MEMORY AVAILABLE ON THE MACHINE. PLEASE SEE
          THE "ABAQUS ANALYSIS USER'S MANUAL" FOR MORE DETAILS. THE ACTUAL USAGE OF MEMORY AND OF DISK
          SPACE FOR SCRATCH DATA WILL DEPEND ON THIS UPPER LIMIT AS WELL AS THE MEMORY REQUIRED TO MINIMIZE
          I/O. IF THE MEMORY UPPER LIMIT IS GREATER THAN THE MEMORY REQUIRED TO MINIMIZE I/O, THEN THE ACTUAL
          MEMORY USAGE WILL BE CLOSE TO THE ESTIMATED "MEMORY TO MINIMIZE I/O" VALUE, AND THE SCRATCH DISK
          USAGE WILL BE CLOSE-TO-ZERO; OTHERWISE, THE ACTUAL MEMORY USED WILL BE CLOSE TO THE PREVIOUSLY
          MENTIONED MEMORY LIMIT, AND THE SCRATCH DISK USAGE WILL BE ROUGHLY PROPORTIONAL TO THE DIFFERENCE
          BETWEEN THE ESTIMATED "MEMORY TO MINIMIZE I/O" AND THE MEMORY UPPER LIMIT. HOWEVER ACCURATE
          ESTIMATE OF THE SCRATCH DISK SPACE IS NOT POSSIBLE.
      (6) USING "*RESTART, WRITE" CAN GENERATE A LARGE AMOUNT OF DATA WRITTEN IN THE WORK DIRECTORY.


                                INCREMENT     1 SUMMARY


 TIME INCREMENT COMPLETED  1.000E-04,  FRACTION OF STEP COMPLETED  1.000E-04
 STEP TIME COMPLETED       1.000E-04,  TOTAL TIME COMPLETED        1.000E-04



                                                  E L E M E N T   O U T P U T





   THE FOLLOWING TABLE IS PRINTED AT THE INTEGRATION POINTS FOR ELEMENT TYPE B21H AND ELEMENT SET 
   ELSET_BEAM

    ELEMENT  PT SEC FOOT-   S11         
                 PT NOTE 

           1   1  1     -6.8146E-05
           1   1  5      6.8118E-05
           2   1  1     -6.1923E-05
           2   1  5      6.1900E-05
           3   1  1     -5.6863E-05
           3   1  5      5.6839E-05
           4   1  1     -5.2813E-05
           4   1  5      5.2783E-05
           5   1  1     -4.9634E-05
           5   1  5      4.9587E-05
           6   1  1     -4.7191E-05
           6   1  5      4.7113E-05
           7   1  1     -4.5355E-05
           7   1  5      4.5239E-05
           8   1  1     -4.3999E-05
           8   1  5      4.3855E-05
           9   1  1     -4.3013E-05
           9   1  5      4.2855E-05
          10   1  1     -4.2301E-05
          10   1  5      4.2139E-05
          11   1  1     -4.1777E-05
          11   1  5      4.1612E-05
          12   1  1     -4.1359E-05
          12   1  5      4.1194E-05
          13   1  1     -4.0979E-05
          13   1  5      4.0814E-05
          14   1  1     -4.0573E-05
          14   1  5      4.0408E-05
          15   1  1     -4.0088E-05
          15   1  5      3.9923E-05
          16   1  1     -3.9480E-05
          16   1  5      3.9315E-05
          17   1  1     -3.8709E-05
          17   1  5      3.8545E-05
          18   1  1     -3.7748E-05
          18   1  5      3.7584E-05
          19   1  1     -3.6571E-05
          19   1  5      3.6408E-05
          20   1  1     -3.5163E-05
          20   1  5      3.5000E-05
          21   1  1     -3.3510E-05
          21   1  5      3.3348E-05
          22   1  1     -3.1606E-05
          22   1  5      3.1445E-05
          23   1  1     -2.9444E-05
          23   1  5      2.9286E-05
          24   1  1     -2.7025E-05
          24   1  5      2.6869E-05
          25   1  1     -2.4346E-05
          25   1  5      2.4194E-05
          26   1  1     -2.1406E-05
          26   1  5      2.1261E-05
          27   1  1     -1.8203E-05
          27   1  5      1.8070E-05
          28   1  1     -1.4727E-05
          28   1  5      1.4621E-05
          29   1  1     -1.0966E-05
          29   1  5      1.0910E-05
          30   1  1     -6.9048E-06
          30   1  5      6.9243E-06
          31   1  1     -2.5411E-06
          31   1  5      2.6242E-06
          32   1  1      2.1467E-06
          32   1  5     -2.0282E-06
          33   1  1      7.2042E-06
          33   1  5     -7.0682E-06
          34   1  1      1.2689E-05
          34   1  5     -1.2544E-05
          35   1  1      1.8670E-05
          35   1  5     -1.8520E-05
          36   1  1      2.5232E-05
          36   1  5     -2.5079E-05
          37   1  1      3.2479E-05
          37   1  5     -3.2324E-05
          38   1  1      4.0532E-05
          38   1  5     -4.0376E-05
          39   1  1      4.9537E-05
          39   1  5     -4.9381E-05
          40   1  1      5.9667E-05
          40   1  5     -5.9510E-05
          41   1  1      1.3406E-04
          41   1  5     -1.3981E-04
          42   1  1      1.1534E-04
          42   1  5     -1.2110E-04
          43   1  1      1.0106E-04
          43   1  5     -1.0683E-04
          44   1  1      9.0344E-05
          44   1  5     -9.6111E-05
          45   1  1      8.2369E-05
          45   1  5     -8.8118E-05
          46   1  1      7.6400E-05
          46   1  5     -8.2092E-05
          47   1  1      7.1791E-05
          47   1  5     -7.7319E-05
          48   1  1      6.8034E-05
          48   1  5     -7.3095E-05
          49   1  1      6.4788E-05
          49   1  5     -6.8695E-05
          50   1  1      6.1497E-05
          50   1  5     -6.3758E-05
          51   1  1      5.7194E-05
          51   1  5     -5.8489E-05
          52   1  1      5.1449E-05
          52   1  5     -5.2701E-05
          53   1  1      4.4229E-05
          53   1  5     -4.5968E-05
          54   1  1      3.5541E-05
          54   1  5     -3.7969E-05
          55   1  1      2.5398E-05
          55   1  5     -2.8525E-05
          56   1  1      1.3833E-05
          56   1  5     -1.7585E-05
          57   1  1      9.1793E-07
          57   1  5     -5.1952E-06
          58   1  1     -1.3221E-05
          58   1  5      8.5135E-06
          59   1  1     -2.8394E-05
          59   1  5      2.3342E-05
          60   1  1     -4.4354E-05
          60   1  5      3.9027E-05
          61   1  1     -6.0789E-05
          61   1  5      5.5249E-05
          62   1  1     -7.7336E-05
          62   1  5      7.1632E-05
          63   1  1     -9.3579E-05
          63   1  5      8.7752E-05
          64   1  1     -1.0905E-04
          64   1  5      1.0314E-04
          65   1  1     -1.2326E-04
          65   1  5      1.1728E-04
          66   1  1     -1.3566E-04
          66   1  5      1.2964E-04
          67   1  1     -1.4567E-04
          67   1  5      1.3963E-04
          68   1  1     -1.5272E-04
          68   1  5      1.4667E-04
          69   1  1     -1.5620E-04
          69   1  5      1.5014E-04
          70   1  1     -1.5548E-04
          70   1  5      1.4942E-04
          71   1  1     -1.4995E-04
          71   1  5      1.4389E-04
          72   1  1     -1.3900E-04
          72   1  5      1.3295E-04
          73   1  1     -1.2203E-04
          73   1  5      1.1599E-04
          74   1  1     -9.8472E-05
          74   1  5      9.2436E-05
          75   1  1     -6.7787E-05
          75   1  5      6.1757E-05
          76   1  1     -2.9482E-05
          76   1  5      2.3457E-05
          77   1  1      1.6887E-05
          77   1  5     -2.2907E-05
          78   1  1      7.1694E-05
          78   1  5     -7.7711E-05
          79   1  1      1.3524E-04
          79   1  5     -1.4126E-04
          80   1  1      2.0775E-04
          80   1  5     -2.1376E-04

 MAXIMUM                2.0775E-04                                                                                                
 ELEMENT                       80                                                                                                 

 MINIMUM               -2.1376E-04                                                                                                
 ELEMENT                       80                                                                                                 
  
  
  
                                        E N E R G Y   O U T P U T
  
  
  
  
  
   THE FOLLOWING TABLE IS PRINTED FOR ELEMENT SET ELSET_BEAM
          APPROXIMATE ENERGY TOTALS -
            KINETIC ENERGY                            0.00    
            RECOVERABLE STRAIN ENERGY                4.954E-10
            PLASTIC DISSIPATION                       0.00    
            CREEP DISSIPATION                         0.00    
            VISCOUS DISSIPATION (IN DAMPERS ETC)      0.00    
            STATIC DISSIPATION (STABILIZATION)        0.00    
            ENERGY TO CONTROL SPURIOUS MODES          0.00    
            ELECTROSTATIC ENERGY                      0.00    
            ENERGY DUE TO ELECTRICAL CURRENT          0.00    
            DAMAGE DISSIPATION                        0.00    
            TOTAL STRAIN ENERGY (STRESS POWER)       4.954E-10
  
  
  
  
                                       N O D E   O U T P U T
  
  
  
  
   THE FOLLOWING TABLE IS PRINTED FOR NODES BELONGING TO NODE SET NSET_ANCHOR
  
       NODE FOOT-   RF1         RF2         RM3      
            NOTE
  
          1     -3.7615E-08  1.9507E-07  2.2896E-05 
         42      7.2289E-06  7.9569E-07 -4.7206E-05 

 TOTAL         7.1913E-06  9.9076E-07 -2.4309E-05
  
  
  
   THE FOLLOWING TABLE IS PRINTED FOR NODES BELONGING TO NODE SET NSET_MONITOR
  
       NODE FOOT-   U1          U2          UR3         RF1         RF2         RM3      
            NOTE
  
         41       0.000     -1.0000E-03   0.000      3.7615E-08 -1.9507E-07  2.0786E-05 
  
  
  
   THE FOLLOWING TABLE IS PRINTED FOR NODES BELONGING TO NODE SET NSET_UPPER
  
       NODE FOOT-   COOR1       COOR2       U1          U2          UR3      
            NOTE
  
          1       0.000       20.15       0.000       0.000       0.000     
          2       10.47       24.05      1.0705E-06 -2.8732E-06 -5.4356E-07 
          3       19.08       27.01      3.2885E-06 -9.3091E-06 -9.4661E-07 
          4       26.04       29.41      5.9128E-06 -1.6938E-05 -1.2452E-06 
          5       31.51       31.54      8.8091E-06 -2.4359E-05 -1.4666E-06 
          6       35.67       33.71      1.2165E-05 -3.0808E-05 -1.6328E-06 
          7       38.68       36.15      1.6324E-05 -3.5931E-05 -1.7637E-06 
          8       40.71       39.11      2.1700E-05 -3.9630E-05 -1.8796E-06 
          9       41.91       42.74      2.8758E-05 -4.1945E-05 -1.9997E-06 
         10       42.40       47.22      3.8016E-05 -4.2976E-05 -2.1378E-06 
         11       42.34       52.65      5.0060E-05 -4.2834E-05 -2.3014E-06 
         12       41.84       59.10      6.5545E-05 -4.1629E-05 -2.4943E-06 
         13       41.01       66.64      8.5179E-05 -3.9478E-05 -2.7178E-06 
         14       39.97       75.26      1.0970E-04 -3.6517E-05 -2.9714E-06 
         15       38.81       84.94      1.3985E-04 -3.2914E-05 -3.2536E-06 
         16       37.63       95.64      1.7629E-04 -2.8885E-05 -3.5610E-06 
         17       36.51       107.3      2.1957E-04 -2.4702E-05 -3.8894E-06 
         18       35.52       119.7      2.7001E-04 -2.0701E-05 -4.2331E-06 
         19       34.75       132.7      3.2765E-04 -1.7282E-05 -4.5854E-06 
         20       34.25       146.3      3.9216E-04 -1.4909E-05 -4.9387E-06 
         21       34.09       160.1      4.6279E-04 -1.4103E-05 -5.2849E-06 
         22       34.34       174.0      5.3831E-04 -1.5429E-05 -5.6157E-06 
         23       35.04       187.6      6.1699E-04 -1.9486E-05 -5.9232E-06 
         24       36.26       200.7      6.9666E-04 -2.6888E-05 -6.2000E-06 
         25       38.06       213.1      7.7472E-04 -3.8253E-05 -6.4402E-06 
         26       40.49       224.3      8.4824E-04 -5.4189E-05 -6.6396E-06 
         27       43.63       234.1      9.1408E-04 -7.5287E-05 -6.7964E-06 
         28       47.55       242.1      9.6901E-04 -1.0212E-04 -6.9119E-06 
         29       52.32       248.0      1.0098E-03 -1.3527E-04 -6.9912E-06 
         30       58.02       251.4      1.0334E-03 -1.7534E-04 -7.0430E-06 
         31       64.77       251.9      1.0369E-03 -2.2299E-04 -7.0764E-06 
         32       72.67       249.1      1.0173E-03 -2.7897E-04 -7.0918E-06 
         33       81.86       242.7      9.7217E-04 -3.4403E-04 -7.0752E-06 
         34       92.47       232.4      8.9924E-04 -4.1872E-04 -6.9996E-06 
         35       104.7       217.7      7.9755E-04 -5.0313E-04 -6.8274E-06 
         36       118.7       198.3      6.6814E-04 -5.9647E-04 -6.5098E-06 
         37       134.6       173.9      5.1546E-04 -6.9646E-04 -5.9856E-06 
         38       152.9       144.1      3.4916E-04 -7.9837E-04 -5.1782E-06 
         39       173.6       108.8      1.8656E-04 -8.9376E-04 -3.9935E-06 
         40       197.2       67.51      5.5793E-05 -9.6849E-04 -2.3151E-06 
         41       223.9       20.14       0.000     -1.0000E-03   0.000     

 MAXIMUM          223.9       251.9      1.0369E-03   0.000       0.000    
 AT NODE                41          31          31           1           1

 MINIMUM          0.000       20.14       0.000     -1.0000E-03 -7.0918E-06
 AT NODE                 1          41           1          41          32

 TOTAL          2506.       5313.      1.6334E-02 -7.9224E-03 -1.7146E-04


                                INCREMENT     2 SUMMARY


 TIME INCREMENT COMPLETED  1.000E-04,  FRACTION OF STEP COMPLETED  2.000E-04
 STEP TIME COMPLETED       2.000E-04,  TOTAL TIME COMPLETED        2.000E-04



                                                  E L E M E N T   O U T P U T





   THE FOLLOWING TABLE IS PRINTED AT THE INTEGRATION POINTS FOR ELEMENT TYPE B21H AND ELEMENT SET 
   ELSET_BEAM

    ELEMENT  PT SEC FOOT-   S11         
                 PT NOTE 

           1   1  1     -1.3629E-04
           1   1  5      1.3624E-04
           2   1  1     -1.2385E-04
           2   1  5      1.2380E-04
           3   1  1     -1.1373E-04
           3   1  5      1.1368E-04
           4   1  1     -1.0563E-04
           4   1  5      1.0557E-04
           5   1  1     -9.9268E-05
           5   1  5      9.9174E-05
           6   1  1     -9.4382E-05
           6   1  5      9.4226E-05
           7   1  1     -9.0710E-05
           7   1  5      9.0477E-05
           8   1  1     -8.7999E-05
           8   1  5      8.7709E-05
           9   1  1     -8.6027E-05
           9   1  5      8.5711E-05
          10   1  1     -8.4603E-05
          10   1  5      8.4277E-05
          11   1  1     -8.3553E-05
          11   1  5      8.3224E-05
          12   1  1     -8.2719E-05
          12   1  5      8.2389E-05
          13   1  1     -8.1958E-05
          13   1  5      8.1627E-05
          14   1  1     -8.1146E-05
          14   1  5      8.0816E-05
          15   1  1     -8.0177E-05
          15   1  5      7.9847E-05
          16   1  1     -7.8959E-05
          16   1  5      7.8630E-05
          17   1  1     -7.7419E-05
          17   1  5      7.7090E-05
          18   1  1     -7.5496E-05
          18   1  5      7.5167E-05
          19   1  1     -7.3143E-05
          19   1  5      7.2816E-05
          20   1  1     -7.0326E-05
          20   1  5      7.0000E-05
          21   1  1     -6.7020E-05
          21   1  5      6.6697E-05
          22   1  1     -6.3211E-05
          22   1  5      6.2890E-05
          23   1  1     -5.8889E-05
          23   1  5      5.8571E-05
          24   1  1     -5.4050E-05
          24   1  5      5.3737E-05
          25   1  1     -4.8692E-05
          25   1  5      4.8387E-05
          26   1  1     -4.2812E-05
          26   1  5      4.2522E-05
          27   1  1     -3.6405E-05
          27   1  5      3.6140E-05
          28   1  1     -2.9454E-05
          28   1  5      2.9241E-05
          29   1  1     -2.1931E-05
          29   1  5      2.1820E-05
          30   1  1     -1.3809E-05
          30   1  5      1.3848E-05
          31   1  1     -5.0817E-06
          31   1  5      5.2481E-06
          32   1  1      4.2938E-06
          32   1  5     -4.0569E-06
          33   1  1      1.4409E-05
          33   1  5     -1.4137E-05
          34   1  1      2.5378E-05
          34   1  5     -2.5088E-05
          35   1  1      3.7340E-05
          35   1  5     -3.7040E-05
          36   1  1      5.0465E-05
          36   1  5     -5.0159E-05
          37   1  1      6.4957E-05
          37   1  5     -6.4647E-05
          38   1  1      8.1063E-05
          38   1  5     -8.0751E-05
          39   1  1      9.9074E-05
          39   1  5     -9.8761E-05
          40   1  1      1.1933E-04
          40   1  5     -1.1902E-04
          41   1  1      2.6808E-04
          41   1  5     -2.7958E-04
          42   1  1      2.3065E-04
          42   1  5     -2.4217E-04
          43   1  1      2.0209E-04
          43   1  5     -2.1363E-04
          44   1  1      1.8066E-04
          44   1  5     -1.9219E-04
          45   1  1      1.6471E-04
          45   1  5     -1.7620E-04
          46   1  1      1.5277E-04
          46   1  5     -1.6415E-04
          47   1  1      1.4355E-04
          47   1  5     -1.5461E-04
          48   1  1      1.3604E-04
          48   1  5     -1.4616E-04
          49   1  1      1.2955E-04
          49   1  5     -1.3736E-04
          50   1  1      1.2297E-04
          50   1  5     -1.2749E-04
          51   1  1      1.1436E-04
          51   1  5     -1.1695E-04
          52   1  1      1.0287E-04
          52   1  5     -1.0538E-04
          53   1  1      8.8433E-05
          53   1  5     -9.1911E-05
          54   1  1      7.1059E-05
          54   1  5     -7.5913E-05
          55   1  1      5.0775E-05
          55   1  5     -5.7028E-05
          56   1  1      2.7646E-05
          56   1  5     -3.5149E-05
          57   1  1      1.8179E-06
          57   1  5     -1.0372E-05
          58   1  1     -2.6457E-05
          58   1  5      1.7043E-05
          59   1  1     -5.6802E-05
          59   1  5      4.6697E-05
          60   1  1     -8.8718E-05
          60   1  5      7.8065E-05
          61   1  1     -1.2159E-04
          61   1  5      1.1051E-04
          62   1  1     -1.5468E-04
          62   1  5      1.4327E-04
          63   1  1     -1.8716E-04
          63   1  5      1.7551E-04
          64   1  1     -2.1811E-04
          64   1  5      2.0628E-04
          65   1  1     -2.4652E-04
          65   1  5      2.3456E-04
          66   1  1     -2.7131E-04
          66   1  5      2.5927E-04
          67   1  1     -2.9134E-04
          67   1  5      2.7926E-04
          68   1  1     -3.0544E-04
          68   1  5      2.9333E-04
          69   1  1     -3.1239E-04
          69   1  5      3.0027E-04
          70   1  1     -3.1095E-04
          70   1  5      2.9883E-04
          71   1  1     -2.9989E-04
          71   1  5      2.8778E-04
          72   1  1     -2.7799E-04
          72   1  5      2.6589E-04
          73   1  1     -2.4405E-04
          73   1  5      2.3197E-04
          74   1  1     -1.9694E-04
          74   1  5      1.8486E-04
          75   1  1     -1.3557E-04
          75   1  5      1.2351E-04
          76   1  1     -5.8957E-05
          76   1  5      4.6908E-05
          77   1  1      3.3778E-05
          77   1  5     -4.5818E-05
          78   1  1      1.4339E-04
          78   1  5     -1.5542E-04
          79   1  1      2.7048E-04
          79   1  5     -2.8251E-04
          80   1  1      4.1548E-04
          80   1  5     -4.2751E-04

 MAXIMUM                4.1548E-04                                                                                                
 ELEMENT                       80                                                                                                 

 MINIMUM               -4.2751E-04                                                                                                
 ELEMENT                       80                                                                                                 
  
  
  
                                        E N E R G Y   O U T P U T
  
  
  
  
  
   THE FOLLOWING TABLE IS PRINTED FOR ELEMENT SET ELSET_BEAM
          APPROXIMATE ENERGY TOTALS -
            KINETIC ENERGY                            0.00    
            RECOVERABLE STRAIN ENERGY                1.981E-09
            PLASTIC DISSIPATION                       0.00    
            CREEP DISSIPATION                         0.00    
            VISCOUS DISSIPATION (IN DAMPERS ETC)      0.00    
            STATIC DISSIPATION (STABILIZATION)        0.00    
            ENERGY TO CONTROL SPURIOUS MODES          0.00    
            ELECTROSTATIC ENERGY                      0.00    
            ENERGY DUE TO ELECTRICAL CURRENT          0.00    
            DAMAGE DISSIPATION                        0.00    
            TOTAL STRAIN ENERGY (STRESS POWER)       1.981E-09
  
  
  
  
                                       N O D E   O U T P U T
  
  
  
  
   THE FOLLOWING TABLE IS PRINTED FOR NODES BELONGING TO NODE SET NSET_ANCHOR
  
       NODE FOOT-   RF1         RF2         RM3      
            NOTE
  
          1     -7.5228E-08  3.9014E-07  4.5793E-05 
         42      1.4457E-05  1.5912E-06 -9.4398E-05 

 TOTAL         1.4381E-05  1.9814E-06 -4.8605E-05
  
  
  
   THE FOLLOWING TABLE IS PRINTED FOR NODES BELONGING TO NODE SET NSET_MONITOR
  
       NODE FOOT-   U1          U2          UR3         RF1         RF2         RM3      
            NOTE
  
         41       0.000     -2.0000E-03   0.000      7.5228E-08 -3.9014E-07  4.1572E-05 
  
  
  
   THE FOLLOWING TABLE IS PRINTED FOR NODES BELONGING TO NODE SET NSET_UPPER
  
       NODE FOOT-   COOR1       COOR2       U1          U2          UR3      
            NOTE
  
          1       0.000       20.15       0.000       0.000       0.000     
          2       10.47       24.05      2.1411E-06 -5.7463E-06 -1.0871E-06 
          3       19.08       27.01      6.5771E-06 -1.8618E-05 -1.8932E-06 
          4       26.04       29.41      1.1826E-05 -3.3875E-05 -2.4904E-06 
          5       31.51       31.54      1.7618E-05 -4.8718E-05 -2.9333E-06 
          6       35.67       33.71      2.4330E-05 -6.1617E-05 -3.2657E-06 
          7       38.68       36.15      3.2648E-05 -7.1863E-05 -3.5274E-06 
          8       40.71       39.11      4.3401E-05 -7.9259E-05 -3.7591E-06 
          9       41.91       42.74      5.7515E-05 -8.3890E-05 -3.9994E-06 
         10       42.40       47.22      7.6031E-05 -8.5953E-05 -4.2756E-06 
         11       42.34       52.64      1.0012E-04 -8.5668E-05 -4.6029E-06 
         12       41.84       59.10      1.3109E-04 -8.3259E-05 -4.9887E-06 
         13       41.01       66.64      1.7036E-04 -7.8957E-05 -5.4356E-06 
         14       39.97       75.26      2.1941E-04 -7.3035E-05 -5.9429E-06 
         15       38.81       84.94      2.7970E-04 -6.5829E-05 -6.5071E-06 
         16       37.63       95.64      3.5259E-04 -5.7772E-05 -7.1221E-06 
         17       36.51       107.3      4.3914E-04 -4.9406E-05 -7.7789E-06 
         18       35.52       119.7      5.4001E-04 -4.1403E-05 -8.4663E-06 
         19       34.75       132.7      6.5529E-04 -3.4565E-05 -9.1708E-06 
         20       34.25       146.3      7.8432E-04 -2.9819E-05 -9.8774E-06 
         21       34.09       160.1      9.2558E-04 -2.8207E-05 -1.0570E-05 
         22       34.34       174.0      1.0766E-03 -3.0861E-05 -1.1232E-05 
         23       35.04       187.6      1.2340E-03 -3.8975E-05 -1.1846E-05 
         24       36.26       200.7      1.3933E-03 -5.3779E-05 -1.2400E-05 
         25       38.06       213.1      1.5495E-03 -7.6509E-05 -1.2880E-05 
         26       40.49       224.3      1.6965E-03 -1.0838E-04 -1.3279E-05 
         27       43.63       234.1      1.8282E-03 -1.5058E-04 -1.3593E-05 
         28       47.55       242.1      1.9380E-03 -2.0425E-04 -1.3824E-05 
         29       52.32       248.0      2.0197E-03 -2.7055E-04 -1.3982E-05 
         30       58.03       251.4      2.0669E-03 -3.5068E-04 -1.4086E-05 
         31       64.77       251.9      2.0738E-03 -4.4598E-04 -1.4153E-05 
         32       72.68       249.1      2.0347E-03 -5.5795E-04 -1.4184E-05 
         33       81.86       242.7      1.9443E-03 -6.8807E-04 -1.4150E-05 
         34       92.47       232.4      1.7985E-03 -8.3744E-04 -1.3999E-05 
         35       104.7       217.7      1.5951E-03 -1.0063E-03 -1.3655E-05 
         36       118.7       198.3      1.3363E-03 -1.1930E-03 -1.3020E-05 
         37       134.6       173.9      1.0309E-03 -1.3929E-03 -1.1971E-05 
         38       152.9       144.1      6.9833E-04 -1.5967E-03 -1.0356E-05 
         39       173.6       108.8      3.7311E-04 -1.7875E-03 -7.9870E-06 
         40       197.2       67.51      1.1159E-04 -1.9370E-03 -4.6302E-06 
         41       223.9       20.14       0.000     -2.0000E-03   0.000     

 MAXIMUM          223.9       251.9      2.0738E-03   0.000       0.000    
 AT NODE                41          31          31           1           1

 MINIMUM          0.000       20.14       0.000     -2.0000E-03 -1.4184E-05
 AT NODE                 1          41           1          41          32

 TOTAL          2506.       5313.      3.2669E-02 -1.5845E-02 -3.4292E-04


                                INCREMENT     3 SUMMARY


 TIME INCREMENT COMPLETED  1.500E-04,  FRACTION OF STEP COMPLETED  3.500E-04
 STEP TIME COMPLETED       3.500E-04,  TOTAL TIME COMPLETED        3.500E-04



                                                  E L E M E N T   O U T P U T





   THE FOLLOWING TABLE IS PRINTED AT THE INTEGRATION POINTS FOR ELEMENT TYPE B21H AND ELEMENT SET 
   ELSET_BEAM

    ELEMENT  PT SEC FOOT-   S11         
                 PT NOTE 

           1   1  1     -2.3851E-04
           1   1  5      2.3842E-04
           2   1  1     -2.1673E-04
           2   1  5      2.1665E-04
           3   1  1     -1.9902E-04
           3   1  5      1.9894E-04
           4   1  1     -1.8485E-04
           4   1  5      1.8474E-04
           5   1  1     -1.7372E-04
           5   1  5      1.7356E-04
           6   1  1     -1.6517E-04
           6   1  5      1.6490E-04
           7   1  1     -1.5874E-04
           7   1  5      1.5834E-04
           8   1  1     -1.5400E-04
           8   1  5      1.5349E-04
           9   1  1     -1.5055E-04
           9   1  5      1.4999E-04
          10   1  1     -1.4806E-04
          10   1  5      1.4749E-04
          11   1  1     -1.4622E-04
          11   1  5      1.4564E-04
          12   1  1     -1.4476E-04
          12   1  5      1.4418E-04
          13   1  1     -1.4343E-04
          13   1  5      1.4285E-04
          14   1  1     -1.4201E-04
          14   1  5      1.4143E-04
          15   1  1     -1.4031E-04
          15   1  5      1.3973E-04
          16   1  1     -1.3818E-04
          16   1  5      1.3760E-04
          17   1  1     -1.3548E-04
          17   1  5      1.3491E-04
          18   1  1     -1.3212E-04
          18   1  5      1.3154E-04
          19   1  1     -1.2800E-04
          19   1  5      1.2743E-04
          20   1  1     -1.2307E-04
          20   1  5      1.2250E-04
          21   1  1     -1.1729E-04
          21   1  5      1.1672E-04
          22   1  1     -1.1062E-04
          22   1  5      1.1006E-04
          23   1  1     -1.0306E-04
          23   1  5      1.0250E-04
          24   1  1     -9.4586E-05
          24   1  5      9.4039E-05
          25   1  1     -8.5210E-05
          25   1  5      8.4677E-05
          26   1  1     -7.4921E-05
          26   1  5      7.4412E-05
          27   1  1     -6.3708E-05
          27   1  5      6.3245E-05
          28   1  1     -5.1544E-05
          28   1  5      5.1172E-05
          29   1  1     -3.8379E-05
          29   1  5      3.8184E-05
          30   1  1     -2.4165E-05
          30   1  5      2.4233E-05
          31   1  1     -8.8918E-06
          31   1  5      9.1829E-06
          32   1  1      7.5153E-06
          32   1  5     -7.1007E-06
          33   1  1      2.5216E-05
          33   1  5     -2.4740E-05
          34   1  1      4.4412E-05
          34   1  5     -4.3904E-05
          35   1  1      6.5346E-05
          35   1  5     -6.4821E-05
          36   1  1      8.8314E-05
          36   1  5     -8.7778E-05
          37   1  1      1.1368E-04
          37   1  5     -1.1313E-04
          38   1  1      1.4186E-04
          38   1  5     -1.4131E-04
          39   1  1      1.7338E-04
          39   1  5     -1.7283E-04
          40   1  1      2.0883E-04
          40   1  5     -2.0828E-04
          41   1  1      4.6904E-04
          41   1  5     -4.8917E-04
          42   1  1      4.0354E-04
          42   1  5     -4.2369E-04
          43   1  1      3.5357E-04
          43   1  5     -3.7375E-04
          44   1  1      3.1606E-04
          44   1  5     -3.3624E-04
          45   1  1      2.8815E-04
          45   1  5     -3.0827E-04
          46   1  1      2.6726E-04
          46   1  5     -2.8718E-04
          47   1  1      2.5114E-04
          47   1  5     -2.7048E-04
          48   1  1      2.3799E-04
          48   1  5     -2.5570E-04
          49   1  1      2.2663E-04
          49   1  5     -2.4030E-04
          50   1  1      2.1512E-04
          50   1  5     -2.2303E-04
          51   1  1      2.0006E-04
          51   1  5     -2.0459E-04
          52   1  1      1.7996E-04
          52   1  5     -1.8434E-04
          53   1  1      1.5469E-04
          53   1  5     -1.6078E-04
          54   1  1      1.2429E-04
          54   1  5     -1.3278E-04
          55   1  1      8.8798E-05
          55   1  5     -9.9739E-05
          56   1  1      4.8328E-05
          56   1  5     -6.1455E-05
          57   1  1      3.1341E-06
          57   1  5     -1.8101E-05
          58   1  1     -4.6341E-05
          58   1  5      2.9869E-05
          59   1  1     -9.9438E-05
          59   1  5      8.1757E-05
          60   1  1     -1.5528E-04
          60   1  5      1.3664E-04
          61   1  1     -2.1280E-04
          61   1  5      1.9341E-04
          62   1  1     -2.7070E-04
          62   1  5      2.5074E-04
          63   1  1     -3.2754E-04
          63   1  5      3.0715E-04
          64   1  1     -3.8169E-04
          64   1  5      3.6099E-04
          65   1  1     -4.3140E-04
          65   1  5      4.1048E-04
          66   1  1     -4.7478E-04
          66   1  5      4.5372E-04
          67   1  1     -5.0983E-04
          67   1  5      4.8869E-04
          68   1  1     -5.3450E-04
          68   1  5      5.1331E-04
          69   1  1     -5.4666E-04
          69   1  5      5.2545E-04
          70   1  1     -5.4414E-04
          70   1  5      5.2293E-04
          71   1  1     -5.2478E-04
          71   1  5      5.0359E-04
          72   1  1     -4.8645E-04
          72   1  5      4.6529E-04
          73   1  1     -4.2707E-04
          73   1  5      4.0592E-04
          74   1  1     -3.4462E-04
          74   1  5      3.2349E-04
          75   1  1     -2.3722E-04
          75   1  5      2.1612E-04
          76   1  1     -1.0316E-04
          76   1  5      8.2076E-05
          77   1  1      5.9125E-05
          77   1  5     -8.0191E-05
          78   1  1      2.5094E-04
          78   1  5     -2.7199E-04
          79   1  1      4.7334E-04
          79   1  5     -4.9439E-04
          80   1  1      7.2707E-04
          80   1  5     -7.4811E-04

 MAXIMUM                7.2707E-04                                                                                                
 ELEMENT                       80                                                                                                 

 MINIMUM               -7.4811E-04                                                                                                
 ELEMENT                       80                                                                                                 
  
  
  
                                        E N E R G Y   O U T P U T
  
  
  
  
  
   THE FOLLOWING TABLE IS PRINTED FOR ELEMENT SET ELSET_BEAM
          APPROXIMATE ENERGY TOTALS -
            KINETIC ENERGY                            0.00    
            RECOVERABLE STRAIN ENERGY                6.068E-09
            PLASTIC DISSIPATION                       0.00    
            CREEP DISSIPATION                         0.00    
            VISCOUS DISSIPATION (IN DAMPERS ETC)      0.00    
            STATIC DISSIPATION (STABILIZATION)        0.00    
            ENERGY TO CONTROL SPURIOUS MODES          0.00    
            ELECTROSTATIC ENERGY                      0.00    
            ENERGY DUE TO ELECTRICAL CURRENT          0.00    
            DAMAGE DISSIPATION                        0.00    
            TOTAL STRAIN ENERGY (STRESS POWER)       6.068E-09
  
  
  
  
                                       N O D E   O U T P U T
  
  
  
  
   THE FOLLOWING TABLE IS PRINTED FOR NODES BELONGING TO NODE SET NSET_ANCHOR
  
       NODE FOOT-   RF1         RF2         RM3      
            NOTE
  
          1     -1.3165E-07  6.8275E-07  8.0138E-05 
         42      2.5296E-05  2.7843E-06 -1.6516E-04 

 TOTAL         2.5164E-05  3.4671E-06 -8.5023E-05
  
  
  
   THE FOLLOWING TABLE IS PRINTED FOR NODES BELONGING TO NODE SET NSET_MONITOR
  
       NODE FOOT-   U1          U2          UR3         RF1         RF2         RM3      
            NOTE
  
         41       0.000     -3.5000E-03   0.000      1.3165E-07 -6.8275E-07  7.2752E-05 
  
  
  
   THE FOLLOWING TABLE IS PRINTED FOR NODES BELONGING TO NODE SET NSET_UPPER
  
       NODE FOOT-   COOR1       COOR2       U1          U2          UR3      
            NOTE
  
          1       0.000       20.15       0.000       0.000       0.000     
          2       10.47       24.05      3.7469E-06 -1.0056E-05 -1.9025E-06 
          3       19.08       27.01      1.1510E-05 -3.2582E-05 -3.3131E-06 
          4       26.04       29.41      2.0695E-05 -5.9282E-05 -4.3582E-06 
          5       31.51       31.54      3.0832E-05 -8.5257E-05 -5.1333E-06 
          6       35.67       33.71      4.2578E-05 -1.0783E-04 -5.7150E-06 
          7       38.68       36.15      5.7134E-05 -1.2576E-04 -6.1729E-06 
          8       40.71       39.11      7.5951E-05 -1.3870E-04 -6.5785E-06 
          9       41.91       42.74      1.0065E-04 -1.4681E-04 -6.9990E-06 
         10       42.40       47.22      1.3306E-04 -1.5042E-04 -7.4823E-06 
         11       42.34       52.64      1.7521E-04 -1.4992E-04 -8.0551E-06 
         12       41.84       59.10      2.2941E-04 -1.4570E-04 -8.7302E-06 
         13       41.01       66.64      2.9813E-04 -1.3818E-04 -9.5123E-06 
         14       39.97       75.26      3.8396E-04 -1.2781E-04 -1.0400E-05 
         15       38.81       84.94      4.8948E-04 -1.1520E-04 -1.1388E-05 
         16       37.63       95.64      6.1703E-04 -1.0110E-04 -1.2464E-05 
         17       36.51       107.3      7.6850E-04 -8.6462E-05 -1.3613E-05 
         18       35.52       119.7      9.4503E-04 -7.2457E-05 -1.4816E-05 
         19       34.75       132.7      1.1468E-03 -6.0491E-05 -1.6049E-05 
         20       34.25       146.3      1.3726E-03 -5.2188E-05 -1.7286E-05 
         21       34.09       160.1      1.6198E-03 -4.9368E-05 -1.8497E-05 
         22       34.34       174.0      1.8841E-03 -5.4012E-05 -1.9655E-05 
         23       35.04       187.6      2.1595E-03 -6.8213E-05 -2.0731E-05 
         24       36.26       200.7      2.4383E-03 -9.4122E-05 -2.1700E-05 
         25       38.06       213.1      2.7115E-03 -1.3390E-04 -2.2541E-05 
         26       40.50       224.3      2.9689E-03 -1.8968E-04 -2.3239E-05 
         27       43.64       234.1      3.1993E-03 -2.6352E-04 -2.3787E-05 
         28       47.55       242.1      3.3916E-03 -3.5745E-04 -2.4192E-05 
         29       52.32       248.0      3.5344E-03 -4.7348E-04 -2.4469E-05 
         30       58.03       251.4      3.6171E-03 -6.1370E-04 -2.4650E-05 
         31       64.78       251.9      3.6291E-03 -7.8048E-04 -2.4767E-05 
         32       72.68       249.1      3.5607E-03 -9.7643E-04 -2.4821E-05 
         33       81.86       242.7      3.4026E-03 -1.2041E-03 -2.4763E-05 
         34       92.47       232.4      3.1474E-03 -1.4655E-03 -2.4499E-05 
         35       104.7       217.7      2.7914E-03 -1.7610E-03 -2.3896E-05 
         36       118.7       198.3      2.3385E-03 -2.0877E-03 -2.2784E-05 
         37       134.6       173.9      1.8041E-03 -2.4376E-03 -2.0949E-05 
         38       152.9       144.1      1.2221E-03 -2.7943E-03 -1.8124E-05 
         39       173.6       108.8      6.5294E-04 -3.1282E-03 -1.3977E-05 
         40       197.2       67.50      1.9527E-04 -3.3897E-03 -8.1028E-06 
         41       223.9       20.14       0.000     -3.5000E-03   0.000     

 MAXIMUM          223.9       251.9      3.6291E-03   0.000       0.000    
 AT NODE                41          31          31           1           1

 MINIMUM          0.000       20.14       0.000     -3.5000E-03 -2.4821E-05
 AT NODE                 1          41           1          41          32

 TOTAL          2506.       5313.      5.7171E-02 -2.7729E-02 -6.0011E-04


                                INCREMENT     4 SUMMARY


 TIME INCREMENT COMPLETED  2.250E-04,  FRACTION OF STEP COMPLETED  5.750E-04
 STEP TIME COMPLETED       5.750E-04,  TOTAL TIME COMPLETED        5.750E-04



                                                  E L E M E N T   O U T P U T





   THE FOLLOWING TABLE IS PRINTED AT THE INTEGRATION POINTS FOR ELEMENT TYPE B21H AND ELEMENT SET 
   ELSET_BEAM

    ELEMENT  PT SEC FOOT-   S11         
                 PT NOTE 

           1   1  1     -3.9184E-04
           1   1  5      3.9169E-04
           2   1  1     -3.5606E-04
           2   1  5      3.5593E-04
           3   1  1     -3.2696E-04
           3   1  5      3.2683E-04
           4   1  1     -3.0368E-04
           4   1  5      3.0351E-04
           5   1  1     -2.8540E-04
           5   1  5      2.8513E-04
           6   1  1     -2.7135E-04
           6   1  5      2.7090E-04
           7   1  1     -2.6079E-04
           7   1  5      2.6013E-04
           8   1  1     -2.5300E-04
           8   1  5      2.5217E-04
           9   1  1     -2.4733E-04
           9   1  5      2.4642E-04
          10   1  1     -2.4324E-04
          10   1  5      2.4230E-04
          11   1  1     -2.4022E-04
          11   1  5      2.3927E-04
          12   1  1     -2.3782E-04
          12   1  5      2.3687E-04
          13   1  1     -2.3563E-04
          13   1  5      2.3468E-04
          14   1  1     -2.3330E-04
          14   1  5      2.3235E-04
          15   1  1     -2.3051E-04
          15   1  5      2.2956E-04
          16   1  1     -2.2701E-04
          16   1  5      2.2606E-04
          17   1  1     -2.2258E-04
          17   1  5      2.2164E-04
          18   1  1     -2.1705E-04
          18   1  5      2.1611E-04
          19   1  1     -2.1029E-04
          19   1  5      2.0935E-04
          20   1  1     -2.0219E-04
          20   1  5      2.0125E-04
          21   1  1     -1.9268E-04
          21   1  5      1.9175E-04
          22   1  1     -1.8173E-04
          22   1  5      1.8081E-04
          23   1  1     -1.6930E-04
          23   1  5      1.6839E-04
          24   1  1     -1.5539E-04
          24   1  5      1.5449E-04
          25   1  1     -1.3999E-04
          25   1  5      1.3911E-04
          26   1  1     -1.2308E-04
          26   1  5      1.2225E-04
          27   1  1     -1.0466E-04
          27   1  5      1.0390E-04
          28   1  1     -8.4677E-05
          28   1  5      8.4065E-05
          29   1  1     -6.3048E-05
          29   1  5      6.2728E-05
          30   1  1     -3.9697E-05
          30   1  5      3.9809E-05
          31   1  1     -1.4605E-05
          31   1  5      1.5083E-05
          32   1  1      1.2349E-05
          32   1  5     -1.1668E-05
          33   1  1      4.1429E-05
          33   1  5     -4.0647E-05
          34   1  1      7.2965E-05
          34   1  5     -7.2131E-05
          35   1  1      1.0736E-04
          35   1  5     -1.0649E-04
          36   1  1      1.4509E-04
          36   1  5     -1.4421E-04
          37   1  1      1.8675E-04
          37   1  5     -1.8586E-04
          38   1  1      2.3306E-04
          38   1  5     -2.3216E-04
          39   1  1      2.8484E-04
          39   1  5     -2.8394E-04
          40   1  1      3.4308E-04
          40   1  5     -3.4218E-04
          41   1  1      7.7030E-04
          41   1  5     -8.0336E-04
          42   1  1      6.6271E-04
          42   1  5     -6.9582E-04
          43   1  1      5.8065E-04
          43   1  5     -6.1379E-04
          44   1  1      5.1903E-04
          44   1  5     -5.5217E-04
          45   1  1      4.7319E-04
          45   1  5     -5.0623E-04
          46   1  1      4.3888E-04
          46   1  5     -4.7160E-04
          47   1  1      4.1239E-04
          47   1  5     -4.4416E-04
          48   1  1      3.9079E-04
          48   1  5     -4.1989E-04
          49   1  1      3.7214E-04
          49   1  5     -3.9459E-04
          50   1  1      3.5322E-04
          50   1  5     -3.6622E-04
          51   1  1      3.2849E-04
          51   1  5     -3.3593E-04
          52   1  1      2.9547E-04
          52   1  5     -3.0267E-04
          53   1  1      2.5397E-04
          53   1  5     -2.6397E-04
          54   1  1      2.0404E-04
          54   1  5     -2.1799E-04
          55   1  1      1.4574E-04
          55   1  5     -1.6371E-04
          56   1  1      7.9266E-05
          56   1  5     -1.0083E-04
          57   1  1      5.0325E-06
          57   1  5     -2.9617E-05
          58   1  1     -7.6232E-05
          58   1  5      4.9177E-05
          59   1  1     -1.6345E-04
          59   1  5      1.3441E-04
          60   1  1     -2.5518E-04
          60   1  5      2.2456E-04
          61   1  1     -3.4964E-04
          61   1  5      3.1780E-04
          62   1  1     -4.4475E-04
          62   1  5      4.1197E-04
          63   1  1     -5.3811E-04
          63   1  5      5.0462E-04
          64   1  1     -6.2706E-04
          64   1  5      5.9306E-04
          65   1  1     -7.0871E-04
          65   1  5      6.7436E-04
          66   1  1     -7.7996E-04
          66   1  5      7.4537E-04
          67   1  1     -8.3754E-04
          67   1  5      8.0281E-04
          68   1  1     -8.7806E-04
          68   1  5      8.4326E-04
          69   1  1     -8.9802E-04
          69   1  5      8.6319E-04
          70   1  1     -8.9388E-04
          70   1  5      8.5905E-04
          71   1  1     -8.6208E-04
          71   1  5      8.2728E-04
          72   1  1     -7.9911E-04
          72   1  5      7.6434E-04
          73   1  1     -7.0155E-04
          73   1  5      6.6682E-04
          74   1  1     -5.6610E-04
          74   1  5      5.3141E-04
          75   1  1     -3.8968E-04
          75   1  5      3.5502E-04
          76   1  1     -1.6943E-04
          76   1  5      1.3480E-04
          77   1  1      9.7164E-05
          77   1  5     -1.3177E-04
          78   1  1      4.1227E-04
          78   1  5     -4.4686E-04
          79   1  1      7.7762E-04
          79   1  5     -8.1219E-04
          80   1  1      1.1944E-03
          80   1  5     -1.2290E-03

 MAXIMUM                1.1944E-03                                                                                                
 ELEMENT                       80                                                                                                 

 MINIMUM               -1.2290E-03                                                                                                
 ELEMENT                       80                                                                                                 
  
  
  
                                        E N E R G Y   O U T P U T
  
  
  
  
  
   THE FOLLOWING TABLE IS PRINTED FOR ELEMENT SET ELSET_BEAM
          APPROXIMATE ENERGY TOTALS -
            KINETIC ENERGY                            0.00    
            RECOVERABLE STRAIN ENERGY                1.638E-08
            PLASTIC DISSIPATION                       0.00    
            CREEP DISSIPATION                         0.00    
            VISCOUS DISSIPATION (IN DAMPERS ETC)      0.00    
            STATIC DISSIPATION (STABILIZATION)        0.00    
            ENERGY TO CONTROL SPURIOUS MODES          0.00    
            ELECTROSTATIC ENERGY                      0.00    
            ENERGY DUE TO ELECTRICAL CURRENT          0.00    
            DAMAGE DISSIPATION                        0.00    
            TOTAL STRAIN ENERGY (STRESS POWER)       1.638E-08
  
  
  
  
                                       N O D E   O U T P U T
  
  
  
  
   THE FOLLOWING TABLE IS PRINTED FOR NODES BELONGING TO NODE SET NSET_ANCHOR
  
       NODE FOOT-   RF1         RF2         RM3      
            NOTE
  
          1     -2.1627E-07  1.1217E-06  1.3166E-04 
         42      4.1550E-05  4.5734E-06 -2.7125E-04 

 TOTAL         4.1333E-05  5.6950E-06 -1.3959E-04
  
  
  
   THE FOLLOWING TABLE IS PRINTED FOR NODES BELONGING TO NODE SET NSET_MONITOR
  
       NODE FOOT-   U1          U2          UR3         RF1         RF2         RM3      
            NOTE
  
         41       0.000     -5.7500E-03   0.000      2.1627E-07 -1.1217E-06  1.1952E-04 
  
  
  
   THE FOLLOWING TABLE IS PRINTED FOR NODES BELONGING TO NODE SET NSET_UPPER
  
       NODE FOOT-   COOR1       COOR2       U1          U2          UR3      
            NOTE
  
          1       0.000       20.15       0.000       0.000       0.000     
          2       10.47       24.05      6.1557E-06 -1.6521E-05 -3.1255E-06 
          3       19.08       27.01      1.8909E-05 -5.3528E-05 -5.4431E-06 
          4       26.04       29.41      3.3999E-05 -9.7393E-05 -7.1600E-06 
          5       31.51       31.54      5.0652E-05 -1.4007E-04 -8.4333E-06 
          6       35.67       33.71      6.9950E-05 -1.7715E-04 -9.3889E-06 
          7       38.68       36.15      9.3863E-05 -2.0661E-04 -1.0141E-05 
          8       40.71       39.11      1.2478E-04 -2.2787E-04 -1.0808E-05 
          9       41.91       42.74      1.6536E-04 -2.4119E-04 -1.1498E-05 
         10       42.40       47.22      2.1859E-04 -2.4712E-04 -1.2292E-05 
         11       42.34       52.64      2.8785E-04 -2.4630E-04 -1.3233E-05 
         12       41.84       59.10      3.7689E-04 -2.3937E-04 -1.4343E-05 
         13       41.01       66.64      4.8978E-04 -2.2701E-04 -1.5627E-05 
         14       39.97       75.26      6.3080E-04 -2.0998E-04 -1.7086E-05 
         15       38.81       84.94      8.0416E-04 -1.8926E-04 -1.8708E-05 
         16       37.63       95.64      1.0137E-03 -1.6610E-04 -2.0476E-05 
         17       36.51       107.3      1.2625E-03 -1.4205E-04 -2.2365E-05 
         18       35.52       119.7      1.5526E-03 -1.1904E-04 -2.4341E-05 
         19       34.75       132.7      1.8840E-03 -9.9386E-05 -2.6366E-05 
         20       34.25       146.3      2.2549E-03 -8.5746E-05 -2.8398E-05 
         21       34.09       160.1      2.6611E-03 -8.1116E-05 -3.0389E-05 
         22       34.34       174.0      3.0953E-03 -8.8749E-05 -3.2291E-05 
         23       35.04       187.6      3.5478E-03 -1.1208E-04 -3.4059E-05 
         24       36.26       200.7      4.0059E-03 -1.5465E-04 -3.5651E-05 
         25       38.06       213.1      4.4547E-03 -2.2001E-04 -3.7032E-05 
         26       40.50       224.3      4.8775E-03 -3.1164E-04 -3.8178E-05 
         27       43.64       234.1      5.2560E-03 -4.3296E-04 -3.9080E-05 
         28       47.55       242.1      5.5719E-03 -5.8728E-04 -3.9744E-05 
         29       52.32       248.0      5.8066E-03 -7.7789E-04 -4.0200E-05 
         30       58.03       251.4      5.9423E-03 -1.0083E-03 -4.0497E-05 
         31       64.78       251.9      5.9622E-03 -1.2823E-03 -4.0689E-05 
         32       72.68       249.1      5.8498E-03 -1.6042E-03 -4.0778E-05 
         33       81.86       242.7      5.5900E-03 -1.9783E-03 -4.0682E-05 
         34       92.47       232.4      5.1707E-03 -2.4077E-03 -4.0248E-05 
         35       104.7       217.7      4.5859E-03 -2.8931E-03 -3.9258E-05 
         36       118.7       198.3      3.8418E-03 -3.4298E-03 -3.7432E-05 
         37       134.6       173.9      2.9639E-03 -4.0047E-03 -3.4417E-05 
         38       152.9       144.1      2.0077E-03 -4.5907E-03 -2.9775E-05 
         39       173.6       108.8      1.0727E-03 -5.1391E-03 -2.2962E-05 
         40       197.2       67.50      3.2081E-04 -5.5688E-03 -1.3312E-05 
         41       223.9       20.14       0.000     -5.7500E-03   0.000     

 MAXIMUM          223.9       251.9      5.9622E-03   0.000       0.000    
 AT NODE                41          31          31           1           1

 MINIMUM          0.000       20.14       0.000     -5.7500E-03 -4.0778E-05
 AT NODE                 1          41           1          41          32

 TOTAL          2506.       5313.      9.3924E-02 -4.5555E-02 -9.8590E-04


                                INCREMENT     5 SUMMARY


 TIME INCREMENT COMPLETED  3.375E-04,  FRACTION OF STEP COMPLETED  9.125E-04
 STEP TIME COMPLETED       9.125E-04,  TOTAL TIME COMPLETED        9.125E-04



                                                  E L E M E N T   O U T P U T





   THE FOLLOWING TABLE IS PRINTED AT THE INTEGRATION POINTS FOR ELEMENT TYPE B21H AND ELEMENT SET 
   ELSET_BEAM

    ELEMENT  PT SEC FOOT-   S11         
                 PT NOTE 

           1   1  1     -6.2184E-04
           1   1  5      6.2159E-04
           2   1  1     -5.6506E-04
           2   1  5      5.6485E-04
           3   1  1     -5.1888E-04
           3   1  5      5.1867E-04
           4   1  1     -4.8193E-04
           4   1  5      4.8166E-04
           5   1  1     -4.5292E-04
           5   1  5      4.5249E-04
           6   1  1     -4.3063E-04
           6   1  5      4.2992E-04
           7   1  1     -4.1387E-04
           7   1  5      4.1281E-04
           8   1  1     -4.0150E-04
           8   1  5      4.0018E-04
           9   1  1     -3.9251E-04
           9   1  5      3.9106E-04
          10   1  1     -3.8601E-04
          10   1  5      3.8452E-04
          11   1  1     -3.8122E-04
          11   1  5      3.7972E-04
          12   1  1     -3.7741E-04
          12   1  5      3.7591E-04
          13   1  1     -3.7394E-04
          13   1  5      3.7243E-04
          14   1  1     -3.7024E-04
          14   1  5      3.6873E-04
          15   1  1     -3.6581E-04
          15   1  5      3.6431E-04
          16   1  1     -3.6026E-04
          16   1  5      3.5875E-04
          17   1  1     -3.5323E-04
          17   1  5      3.5173E-04
          18   1  1     -3.4445E-04
          18   1  5      3.4296E-04
          19   1  1     -3.3372E-04
          19   1  5      3.3223E-04
          20   1  1     -3.2086E-04
          20   1  5      3.1938E-04
          21   1  1     -3.0578E-04
          21   1  5      3.0430E-04
          22   1  1     -2.8840E-04
          22   1  5      2.8693E-04
          23   1  1     -2.6868E-04
          23   1  5      2.6723E-04
          24   1  1     -2.4660E-04
          24   1  5      2.4517E-04
          25   1  1     -2.2215E-04
          25   1  5      2.2076E-04
          26   1  1     -1.9532E-04
          26   1  5      1.9400E-04
          27   1  1     -1.6609E-04
          27   1  5      1.6488E-04
          28   1  1     -1.3437E-04
          28   1  5      1.3340E-04
          29   1  1     -1.0005E-04
          29   1  5      9.9541E-05
          30   1  1     -6.2990E-05
          30   1  5      6.3168E-05
          31   1  1     -2.3171E-05
          31   1  5      2.3930E-05
          32   1  1      1.9604E-05
          32   1  5     -1.8523E-05
          33   1  1      6.5752E-05
          33   1  5     -6.4511E-05
          34   1  1      1.1580E-04
          34   1  5     -1.1447E-04
          35   1  1      1.7037E-04
          35   1  5     -1.6900E-04
          36   1  1      2.3025E-04
          36   1  5     -2.2885E-04
          37   1  1      2.9637E-04
          37   1  5     -2.9495E-04
          38   1  1      3.6985E-04
          38   1  5     -3.6842E-04
          39   1  1      4.5202E-04
          39   1  5     -4.5059E-04
          40   1  1      5.4446E-04
          40   1  5     -5.4302E-04
          41   1  1      1.2218E-03
          41   1  5     -1.2743E-03
          42   1  1      1.0511E-03
          42   1  5     -1.1037E-03
          43   1  1      9.2093E-04
          43   1  5     -9.7351E-04
          44   1  1      8.2317E-04
          44   1  5     -8.7575E-04
          45   1  1      7.5044E-04
          45   1  5     -8.0287E-04
          46   1  1      6.9601E-04
          46   1  5     -7.4792E-04
          47   1  1      6.5399E-04
          47   1  5     -7.0439E-04
          48   1  1      6.1972E-04
          48   1  5     -6.6588E-04
          49   1  1      5.9012E-04
          49   1  5     -6.2575E-04
          50   1  1      5.6011E-04
          50   1  5     -5.8073E-04
          51   1  1      5.2087E-04
          51   1  5     -5.3268E-04
          52   1  1      4.6849E-04
          52   1  5     -4.7991E-04
          53   1  1      4.0265E-04
          53   1  5     -4.1851E-04
          54   1  1      3.2343E-04
          54   1  5     -3.4557E-04
          55   1  1      2.3094E-04
          55   1  5     -2.5945E-04
          56   1  1      1.2548E-04
          56   1  5     -1.5969E-04
          57   1  1      7.7096E-06
          57   1  5     -4.6712E-05
          58   1  1     -1.2122E-04
          58   1  5      7.8294E-05
          59   1  1     -2.5958E-04
          59   1  5      2.1351E-04
          60   1  1     -4.0512E-04
          60   1  5      3.5654E-04
          61   1  1     -5.5499E-04
          61   1  5      5.0447E-04
          62   1  1     -7.0588E-04
          62   1  5      6.5386E-04
          63   1  1     -8.5399E-04
          63   1  5      8.0086E-04
          64   1  1     -9.9511E-04
          64   1  5      9.4117E-04
          65   1  1     -1.1246E-03
          65   1  5      1.0701E-03
          66   1  1     -1.2377E-03
          66   1  5      1.1828E-03
          67   1  1     -1.3290E-03
          67   1  5      1.2739E-03
          68   1  1     -1.3933E-03
          68   1  5      1.3381E-03
          69   1  1     -1.4250E-03
          69   1  5      1.3697E-03
          70   1  1     -1.4184E-03
          70   1  5      1.3632E-03
          71   1  1     -1.3679E-03
          71   1  5      1.3127E-03
          72   1  1     -1.2680E-03
          72   1  5      1.2129E-03
          73   1  1     -1.1132E-03
          73   1  5      1.0581E-03
          74   1  1     -8.9825E-04
          74   1  5      8.4321E-04
          75   1  1     -6.1828E-04
          75   1  5      5.6330E-04
          76   1  1     -2.6878E-04
          76   1  5      2.1385E-04
          77   1  1      1.5427E-04
          77   1  5     -2.0917E-04
          78   1  1      6.5430E-04
          78   1  5     -7.0916E-04
          79   1  1      1.2340E-03
          79   1  5     -1.2889E-03
          80   1  1      1.8953E-03
          80   1  5     -1.9501E-03

 MAXIMUM                1.8953E-03                                                                                                
 ELEMENT                       80                                                                                                 

 MINIMUM               -1.9501E-03                                                                                                
 ELEMENT                       80                                                                                                 
  
  
  
                                        E N E R G Y   O U T P U T
  
  
  
  
  
   THE FOLLOWING TABLE IS PRINTED FOR ELEMENT SET ELSET_BEAM
          APPROXIMATE ENERGY TOTALS -
            KINETIC ENERGY                            0.00    
            RECOVERABLE STRAIN ENERGY                4.123E-08
            PLASTIC DISSIPATION                       0.00    
            CREEP DISSIPATION                         0.00    
            VISCOUS DISSIPATION (IN DAMPERS ETC)      0.00    
            STATIC DISSIPATION (STABILIZATION)        0.00    
            ENERGY TO CONTROL SPURIOUS MODES          0.00    
            ELECTROSTATIC ENERGY                      0.00    
            ENERGY DUE TO ELECTRICAL CURRENT          0.00    
            DAMAGE DISSIPATION                        0.00    
            TOTAL STRAIN ENERGY (STRESS POWER)       4.123E-08
  
  
  
  
                                       N O D E   O U T P U T
  
  
  
  
   THE FOLLOWING TABLE IS PRINTED FOR NODES BELONGING TO NODE SET NSET_ANCHOR
  
       NODE FOOT-   RF1         RF2         RM3      
            NOTE
  
          1     -3.4320E-07  1.7801E-06  2.0893E-04 
         42      6.5918E-05  7.2556E-06 -4.3025E-04 

 TOTAL         6.5575E-05  9.0357E-06 -2.2131E-04
  
  
  
   THE FOLLOWING TABLE IS PRINTED FOR NODES BELONGING TO NODE SET NSET_MONITOR
  
       NODE FOOT-   U1          U2          UR3         RF1         RF2         RM3      
            NOTE
  
         41       0.000     -9.1250E-03   0.000      3.4320E-07 -1.7801E-06  1.8967E-04 
  
  
  
   THE FOLLOWING TABLE IS PRINTED FOR NODES BELONGING TO NODE SET NSET_UPPER
  
       NODE FOOT-   COOR1       COOR2       U1          U2          UR3      
            NOTE
  
          1       0.000       20.15       0.000       0.000       0.000     
          2       10.47       24.05      9.7688E-06 -2.6218E-05 -4.9601E-06 
          3       19.08       27.01      3.0008E-05 -8.4948E-05 -8.6380E-06 
          4       26.04       29.41      5.3955E-05 -1.5456E-04 -1.1363E-05 
          5       31.51       31.54      8.0384E-05 -2.2228E-04 -1.3383E-05 
          6       35.67       33.71      1.1101E-04 -2.8113E-04 -1.4900E-05 
          7       38.68       36.15      1.4896E-04 -3.2788E-04 -1.6094E-05 
          8       40.71       39.11      1.9802E-04 -3.6163E-04 -1.7151E-05 
          9       41.91       42.74      2.6242E-04 -3.8276E-04 -1.8248E-05 
         10       42.40       47.22      3.4690E-04 -3.9217E-04 -1.9508E-05 
         11       42.34       52.64      4.5681E-04 -3.9087E-04 -2.1001E-05 
         12       41.84       59.10      5.9811E-04 -3.7988E-04 -2.2761E-05 
         13       41.01       66.64      7.7727E-04 -3.6025E-04 -2.4800E-05 
         14       39.97       75.26      1.0011E-03 -3.3323E-04 -2.7115E-05 
         15       38.81       84.94      1.2762E-03 -3.0036E-04 -2.9689E-05 
         16       37.63       95.64      1.6087E-03 -2.6360E-04 -3.2495E-05 
         17       36.51       107.3      2.0036E-03 -2.2544E-04 -3.5492E-05 
         18       35.53       119.7      2.4639E-03 -1.8893E-04 -3.8628E-05 
         19       34.75       132.7      2.9898E-03 -1.5774E-04 -4.1843E-05 
         20       34.25       146.3      3.5785E-03 -1.3610E-04 -4.5067E-05 
         21       34.10       160.1      4.2231E-03 -1.2876E-04 -4.8226E-05 
         22       34.34       174.0      4.9122E-03 -1.4087E-04 -5.1245E-05 
         23       35.04       187.6      5.6302E-03 -1.7791E-04 -5.4050E-05 
         24       36.26       200.7      6.3572E-03 -2.4547E-04 -5.6576E-05 
         25       38.06       213.1      7.0695E-03 -3.4920E-04 -5.8768E-05 
         26       40.50       224.3      7.7404E-03 -4.9463E-04 -6.0587E-05 
         27       43.64       234.1      8.3412E-03 -6.8717E-04 -6.2018E-05 
         28       47.56       242.1      8.8424E-03 -9.3207E-04 -6.3072E-05 
         29       52.32       248.0      9.2149E-03 -1.2346E-03 -6.3795E-05 
         30       58.03       251.4      9.4303E-03 -1.6002E-03 -6.4268E-05 
         31       64.78       251.9      9.4618E-03 -2.0350E-03 -6.4572E-05 
         32       72.68       249.1      9.2834E-03 -2.5458E-03 -6.4713E-05 
         33       81.86       242.7      8.8712E-03 -3.1395E-03 -6.4561E-05 
         34       92.47       232.4      8.2057E-03 -3.8210E-03 -6.3871E-05 
         35       104.7       217.7      7.2777E-03 -4.5912E-03 -6.2300E-05 
         36       118.7       198.3      6.0968E-03 -5.4430E-03 -5.9402E-05 
         37       134.6       173.9      4.7036E-03 -6.3553E-03 -5.4618E-05 
         38       152.9       144.1      3.1861E-03 -7.2852E-03 -4.7251E-05 
         39       173.6       108.7      1.7023E-03 -8.1556E-03 -3.6440E-05 
         40       197.2       67.50      5.0911E-04 -8.8375E-03 -2.1125E-05 
         41       223.9       20.14       0.000     -9.1250E-03   0.000     

 MAXIMUM          223.9       251.9      9.4618E-03   0.000       0.000    
 AT NODE                41          31          31           1           1

 MINIMUM          0.000       20.14       0.000     -9.1250E-03 -6.4713E-05
 AT NODE                 1          41           1          41          32

 TOTAL          2506.       5313.      0.1491     -7.2295E-02 -1.5646E-03


                                INCREMENT     6 SUMMARY


 TIME INCREMENT COMPLETED  5.062E-04,  FRACTION OF STEP COMPLETED  1.419E-03
 STEP TIME COMPLETED       1.419E-03,  TOTAL TIME COMPLETED        1.419E-03



                                                  E L E M E N T   O U T P U T





   THE FOLLOWING TABLE IS PRINTED AT THE INTEGRATION POINTS FOR ELEMENT TYPE B21H AND ELEMENT SET 
   ELSET_BEAM

    ELEMENT  PT SEC FOOT-   S11         
                 PT NOTE 

           1   1  1     -9.6685E-04
           1   1  5      9.6646E-04
           2   1  1     -8.7857E-04
           2   1  5      8.7824E-04
           3   1  1     -8.0677E-04
           3   1  5      8.0644E-04
           4   1  1     -7.4932E-04
           4   1  5      7.4889E-04
           5   1  1     -7.0421E-04
           5   1  5      7.0354E-04
           6   1  1     -6.6955E-04
           6   1  5      6.6844E-04
           7   1  1     -6.4350E-04
           7   1  5      6.4185E-04
           8   1  1     -6.2427E-04
           8   1  5      6.2221E-04
           9   1  1     -6.1028E-04
           9   1  5      6.0804E-04
          10   1  1     -6.0018E-04
          10   1  5      5.9787E-04
          11   1  1     -5.9273E-04
          11   1  5      5.9040E-04
          12   1  1     -5.8681E-04
          12   1  5      5.8447E-04
          13   1  1     -5.8141E-04
          13   1  5      5.7907E-04
          14   1  1     -5.7565E-04
          14   1  5      5.7331E-04
          15   1  1     -5.6877E-04
          15   1  5      5.6643E-04
          16   1  1     -5.6014E-04
          16   1  5      5.5780E-04
          17   1  1     -5.4921E-04
          17   1  5      5.4687E-04
          18   1  1     -5.3556E-04
          18   1  5      5.3323E-04
          19   1  1     -5.1887E-04
          19   1  5      5.1655E-04
          20   1  1     -4.9888E-04
          20   1  5      4.9657E-04
          21   1  1     -4.7543E-04
          21   1  5      4.7313E-04
          22   1  1     -4.4840E-04
          22   1  5      4.4612E-04
          23   1  1     -4.1773E-04
          23   1  5      4.1548E-04
          24   1  1     -3.8340E-04
          24   1  5      3.8118E-04
          25   1  1     -3.4539E-04
          25   1  5      3.4323E-04
          26   1  1     -3.0367E-04
          26   1  5      3.0161E-04
          27   1  1     -2.5822E-04
          27   1  5      2.5634E-04
          28   1  1     -2.0891E-04
          28   1  5      2.0740E-04
          29   1  1     -1.5554E-04
          29   1  5      1.5475E-04
          30   1  1     -9.7920E-05
          30   1  5      9.8197E-05
          31   1  1     -3.6009E-05
          31   1  5      3.7190E-05
          32   1  1      3.0496E-05
          32   1  5     -2.8815E-05
          33   1  1      1.0225E-04
          33   1  5     -1.0032E-04
          34   1  1      1.8005E-04
          34   1  5     -1.7799E-04
          35   1  1      2.6490E-04
          35   1  5     -2.6277E-04
          36   1  1      3.5800E-04
          36   1  5     -3.5583E-04
          37   1  1      4.6079E-04
          37   1  5     -4.5859E-04
          38   1  1      5.7504E-04
          38   1  5     -5.7282E-04
          39   1  1      7.0280E-04
          39   1  5     -7.0058E-04
          40   1  1      8.4652E-04
          40   1  5     -8.4429E-04
          41   1  1      1.8982E-03
          41   1  5     -1.9797E-03
          42   1  1      1.6330E-03
          42   1  5     -1.7146E-03
          43   1  1      1.4306E-03
          43   1  5     -1.5123E-03
          44   1  1      1.2787E-03
          44   1  5     -1.3604E-03
          45   1  1      1.1656E-03
          45   1  5     -1.2471E-03
          46   1  1      1.0811E-03
          46   1  5     -1.1617E-03
          47   1  1      1.0157E-03
          47   1  5     -1.0941E-03
          48   1  1      9.6249E-04
          48   1  5     -1.0342E-03
          49   1  1      9.1649E-04
          49   1  5     -9.7185E-04
          50   1  1      8.6985E-04
          50   1  5     -9.0190E-04
          51   1  1      8.0887E-04
          51   1  5     -8.2722E-04
          52   1  1      7.2746E-04
          52   1  5     -7.4520E-04
          53   1  1      6.2514E-04
          53   1  5     -6.4978E-04
          54   1  1      5.0202E-04
          54   1  5     -5.3642E-04
          55   1  1      3.5828E-04
          55   1  5     -4.0258E-04
          56   1  1      1.9438E-04
          56   1  5     -2.4754E-04
          57   1  1      1.1341E-05
          57   1  5     -7.1956E-05
          58   1  1     -1.8903E-04
          58   1  5      1.2232E-04
          59   1  1     -4.0407E-04
          59   1  5      3.3247E-04
          60   1  1     -6.3025E-04
          60   1  5      5.5476E-04
          61   1  1     -8.6317E-04
          61   1  5      7.8465E-04
          62   1  1     -1.0977E-03
          62   1  5      1.0168E-03
          63   1  1     -1.3279E-03
          63   1  5      1.2453E-03
          64   1  1     -1.5472E-03
          64   1  5      1.4634E-03
          65   1  1     -1.7485E-03
          65   1  5      1.6638E-03
          66   1  1     -1.9242E-03
          66   1  5      1.8389E-03
          67   1  1     -2.0662E-03
          67   1  5      1.9805E-03
          68   1  1     -2.1661E-03
          68   1  5      2.0802E-03
          69   1  1     -2.2152E-03
          69   1  5      2.1294E-03
          70   1  1     -2.2050E-03
          70   1  5      2.1191E-03
          71   1  1     -2.1265E-03
          71   1  5      2.0407E-03
          72   1  1     -1.9712E-03
          72   1  5      1.8854E-03
          73   1  1     -1.7305E-03
          73   1  5      1.6448E-03
          74   1  1     -1.3963E-03
          74   1  5      1.3108E-03
          75   1  1     -9.6104E-04
          75   1  5      8.7558E-04
          76   1  1     -4.1767E-04
          76   1  5      3.3230E-04
          77   1  1      2.4003E-04
          77   1  5     -3.2535E-04
          78   1  1      1.0174E-03
          78   1  5     -1.1026E-03
          79   1  1      1.9186E-03
          79   1  5     -2.0038E-03
          80   1  1      2.9464E-03
          80   1  5     -3.0317E-03

 MAXIMUM                2.9464E-03                                                                                                
 ELEMENT                       80                                                                                                 

 MINIMUM               -3.0317E-03                                                                                                
 ELEMENT                       80                                                                                                 
  
  
  
                                        E N E R G Y   O U T P U T
  
  
  
  
  
   THE FOLLOWING TABLE IS PRINTED FOR ELEMENT SET ELSET_BEAM
          APPROXIMATE ENERGY TOTALS -
            KINETIC ENERGY                            0.00    
            RECOVERABLE STRAIN ENERGY                9.966E-08
            PLASTIC DISSIPATION                       0.00    
            CREEP DISSIPATION                         0.00    
            VISCOUS DISSIPATION (IN DAMPERS ETC)      0.00    
            STATIC DISSIPATION (STABILIZATION)        0.00    
            ENERGY TO CONTROL SPURIOUS MODES          0.00    
            ELECTROSTATIC ENERGY                      0.00    
            ENERGY DUE TO ELECTRICAL CURRENT          0.00    
            DAMAGE DISSIPATION                        0.00    
            TOTAL STRAIN ENERGY (STRESS POWER)       9.966E-08
  
  
  
  
                                       N O D E   O U T P U T
  
  
  
  
   THE FOLLOWING TABLE IS PRINTED FOR NODES BELONGING TO NODE SET NSET_ANCHOR
  
       NODE FOOT-   RF1         RF2         RM3      
            NOTE
  
          1     -5.3358E-07  2.7677E-06  3.2485E-04 
         42      1.0245E-04  1.1276E-05 -6.6846E-04 

 TOTAL         1.0191E-04  1.4044E-05 -3.4361E-04
  
  
  
   THE FOLLOWING TABLE IS PRINTED FOR NODES BELONGING TO NODE SET NSET_MONITOR
  
       NODE FOOT-   U1          U2          UR3         RF1         RF2         RM3      
            NOTE
  
         41       0.000     -1.4188E-02   0.000      5.3358E-07 -2.7677E-06  2.9490E-04 
  
  
  
   THE FOLLOWING TABLE IS PRINTED FOR NODES BELONGING TO NODE SET NSET_UPPER
  
       NODE FOOT-   COOR1       COOR2       U1          U2          UR3      
            NOTE
  
[...]
          46   1  1     -0.5343
          46   1  5      0.5125
          47   1  1     -0.5494
          47   1  5      0.5280
          48   1  1     -0.5621
          48   1  5      0.5424
          49   1  1     -0.5735
          49   1  5      0.5579
          50   1  1     -0.5855
          50   1  5      0.5759
          51   1  1     -0.6015
          51   1  5      0.5954
          52   1  1     -0.6229
          52   1  5      0.6169
          53   1  1     -0.6497
          53   1  5      0.6419
          54   1  1     -0.6817
          54   1  5      0.6715
          55   1  1     -0.7188
          55   1  5      0.7060
          56   1  1     -0.7607
          56   1  5      0.7456
          57   1  1     -0.8070
          57   1  5      0.7900
          58   1  1     -0.8569
          58   1  5      0.8384
          59   1  1     -0.9097
          59   1  5      0.8900
          60   1  1     -0.9641
          60   1  5      0.9434
          61   1  1      -1.019
          61   1  5      0.9972
          62   1  1      -1.072
          62   1  5       1.050
          63   1  1      -1.121
          63   1  5       1.099
          64   1  1      -1.165
          64   1  5       1.142
          65   1  1      -1.200
          65   1  5       1.178
          66   1  1      -1.225
          66   1  5       1.202
          67   1  1      -1.235
          67   1  5       1.212
          68   1  1      -1.226
          68   1  5       1.204
          69   1  1      -1.197
          69   1  5       1.174
          70   1  1      -1.141
          70   1  5       1.118
          71   1  1      -1.054
          71   1  5       1.032
          72   1  1     -0.9322
          72   1  5      0.9097
          73   1  1     -0.7698
          73   1  5      0.7473
          74   1  1     -0.5622
          74   1  5      0.5399
          75   1  1     -0.3057
          75   1  5      0.2834
          76   1  1      2.0134E-03
          76   1  5     -2.4268E-02
          77   1  1      0.3603
          77   1  5     -0.3825
          78   1  1      0.7637
          78   1  5     -0.7859
          79   1  1       1.200
          79   1  5      -1.222
          80   1  1       1.646
          80   1  5      -1.668

 MAXIMUM                 1.646                                                                                                    
 ELEMENT                       80                                                                                                 

 MINIMUM                -1.668                                                                                                    
 ELEMENT                       80                                                                                                 
  
  
  
                                        E N E R G Y   O U T P U T
  
  
  
  
  
   THE FOLLOWING TABLE IS PRINTED FOR ELEMENT SET ELSET_BEAM
          APPROXIMATE ENERGY TOTALS -
            KINETIC ENERGY                            0.00    
            RECOVERABLE STRAIN ENERGY                3.521E-02
            PLASTIC DISSIPATION                       0.00    
            CREEP DISSIPATION                         0.00    
            VISCOUS DISSIPATION (IN DAMPERS ETC)      0.00    
            STATIC DISSIPATION (STABILIZATION)        0.00    
            ENERGY TO CONTROL SPURIOUS MODES          0.00    
            ELECTROSTATIC ENERGY                      0.00    
            ENERGY DUE TO ELECTRICAL CURRENT          0.00    
            DAMAGE DISSIPATION                        0.00    
            TOTAL STRAIN ENERGY (STRESS POWER)       3.521E-02
  
  
  
  
                                       N O D E   O U T P U T
  
  
  
  
   THE FOLLOWING TABLE IS PRINTED FOR NODES BELONGING TO NODE SET NSET_ANCHOR
  
       NODE FOOT-   RF1         RF2         RM3      
            NOTE
  
          1     -3.3296E-04  1.9806E-03  0.2335     
         42      2.7075E-02  4.3539E-03  9.7993E-02 

 TOTAL         2.6742E-02  6.3345E-03  0.3315    
  
  
  
   THE FOLLOWING TABLE IS PRINTED FOR NODES BELONGING TO NODE SET NSET_MONITOR
  
       NODE FOOT-   U1          U2          UR3         RF1         RF2         RM3      
            NOTE
  
         41       0.000      -9.958       0.000      3.3296E-04 -1.9806E-03  0.2067     
  
  
  
   THE FOLLOWING TABLE IS PRINTED FOR NODES BELONGING TO NODE SET NSET_UPPER
  
       NODE FOOT-   COOR1       COOR2       U1          U2          UR3      
            NOTE
  
          1       0.000       20.15       0.000       0.000       0.000     
          2       10.48       24.02      1.0882E-02 -2.9330E-02 -5.5468E-03 
          3       19.12       26.92      3.3271E-02 -9.5112E-02 -9.6647E-03 
          4       26.10       29.23      5.9634E-02 -0.1732     -1.2719E-02 
          5       31.59       31.29      8.8697E-02 -0.2492     -1.4986E-02 
          6       35.79       33.39      0.1225     -0.3154     -1.6690E-02 
          7       38.85       35.79      0.1645     -0.3681     -1.8032E-02 
          8       40.93       38.70      0.2191     -0.4064     -1.9222E-02 
          9       42.20       42.31      0.2911     -0.4308     -2.0456E-02 
         10       42.79       46.78      0.3857     -0.4424     -2.1875E-02 
         11       42.85       52.20      0.5090     -0.4423     -2.3558E-02 
         12       42.51       58.67      0.6676     -0.4319     -2.5541E-02 
         13       41.88       66.22      0.8690     -0.4126     -2.7840E-02 
         14       41.09       74.87       1.121     -0.3859     -3.0448E-02 
         15       40.24       84.59       1.430     -0.3539     -3.3346E-02 
         16       39.44       95.32       1.804     -0.3192     -3.6501E-02 
         17       38.76       107.0       2.249     -0.2848     -3.9863E-02 
         18       38.29       119.4       2.766     -0.2545     -4.3373E-02 
         19       38.10       132.5       3.357     -0.2328     -4.6957E-02 
         20       38.27       146.1       4.018     -0.2247     -5.0533E-02 
         21       38.83       159.9       4.740     -0.2353     -5.4016E-02 
         22       39.85       173.7       5.511     -0.2703     -5.7317E-02 
         23       41.35       187.3       6.311     -0.3353     -6.0356E-02 
         24       43.38       200.3       7.120     -0.4356     -6.3060E-02 
         25       45.96       212.5       7.909     -0.5764     -6.5372E-02 
         26       49.14       223.6       8.648     -0.7626     -6.7257E-02 
         27       52.94       233.1       9.307     -0.9986     -6.8706E-02 
         28       57.40       240.8       9.852      -1.289     -6.9742E-02 
         29       62.57       246.4       10.25      -1.637     -7.0423E-02 
         30       68.50       249.3       10.47      -2.048     -7.0835E-02 
         31       75.26       249.3       10.49      -2.528     -7.1059E-02 
         32       82.95       246.0       10.28      -3.082     -7.1079E-02 
         33       91.66       239.0       9.801      -3.717     -7.0743E-02 
         34       101.5       227.9       9.047      -4.436     -6.9789E-02 
         35       112.7       212.4       8.007      -5.241     -6.7861E-02 
         36       125.3       192.1       6.693      -6.124     -6.4506E-02 
         37       139.8       166.8       5.152      -7.066     -5.9158E-02 
         38       156.4       136.1       3.483      -8.027     -5.1100E-02 
         39       175.5       99.82       1.858      -8.932     -3.9415E-02 
         40       197.7       57.86      0.5545      -9.650     -2.2911E-02 
         41       223.9       10.19       0.000      -9.958       0.000     

 MAXIMUM          223.9       249.3       10.49       0.000       0.000    
 AT NODE                41          31          31           1           1

 MINIMUM          0.000       10.19       0.000      -9.958     -7.1079E-02
 AT NODE                 1          41           1          41          32

 TOTAL          2672.       5230.       165.7      -83.20      -1.732    


                                INCREMENT   111 SUMMARY


 TIME INCREMENT COMPLETED  4.151E-03,  FRACTION OF STEP COMPLETED   1.00    
 STEP TIME COMPLETED        1.00    ,  TOTAL TIME COMPLETED         1.00    



                                                  E L E M E N T   O U T P U T





   THE FOLLOWING TABLE IS PRINTED AT THE INTEGRATION POINTS FOR ELEMENT TYPE B21H AND ELEMENT SET 
   ELSET_BEAM

    ELEMENT  PT SEC FOOT-   S11         
                 PT NOTE 

           1   1  1     -0.6984
           1   1  5      0.6981
           2   1  1     -0.6354
           2   1  5      0.6351
           3   1  1     -0.5841
           3   1  5      0.5839
           4   1  1     -0.5431
           4   1  5      0.5428
           5   1  1     -0.5109
           5   1  5      0.5104
           6   1  1     -0.4862
           6   1  5      0.4854
           7   1  1     -0.4676
           7   1  5      0.4664
           8   1  1     -0.4539
           8   1  5      0.4524
           9   1  1     -0.4440
           9   1  5      0.4424
          10   1  1     -0.4368
          10   1  5      0.4352
          11   1  1     -0.4315
          11   1  5      0.4298
          12   1  1     -0.4272
          12   1  5      0.4255
          13   1  1     -0.4231
          13   1  5      0.4214
          14   1  1     -0.4186
          14   1  5      0.4169
          15   1  1     -0.4131
          15   1  5      0.4114
          16   1  1     -0.4060
          16   1  5      0.4043
          17   1  1     -0.3970
          17   1  5      0.3953
          18   1  1     -0.3856
          18   1  5      0.3840
          19   1  1     -0.3718
          19   1  5      0.3701
          20   1  1     -0.3552
          20   1  5      0.3536
          21   1  1     -0.3358
          21   1  5      0.3342
          22   1  1     -0.3137
          22   1  5      0.3121
          23   1  1     -0.2888
          23   1  5      0.2872
          24   1  1     -0.2612
          24   1  5      0.2597
          25   1  1     -0.2311
          25   1  5      0.2296
          26   1  1     -0.1986
          26   1  5      0.1972
          27   1  1     -0.1639
          27   1  5      0.1626
          28   1  1     -0.1269
          28   1  5      0.1259
          29   1  1     -8.7679E-02
          29   1  5      8.7190E-02
          30   1  1     -4.6284E-02
          30   1  5      4.6561E-02
          31   1  1     -2.7826E-03
          31   1  5      3.6948E-03
          32   1  1      4.2933E-02
          32   1  5     -4.1676E-02
          33   1  1      9.1241E-02
          33   1  5     -8.9817E-02
          34   1  1      0.1427
          34   1  5     -0.1412
          35   1  1      0.1981
          35   1  5     -0.1965
          36   1  1      0.2585
          36   1  5     -0.2569
          37   1  1      0.3255
          37   1  5     -0.3240
          38   1  1      0.4014
          38   1  5     -0.3998
          39   1  1      0.4892
          39   1  5     -0.4876
          40   1  1      0.5929
          40   1  5     -0.5913
          41   1  1     -0.3588
          41   1  5      0.3368
          42   1  1     -0.4183
          42   1  5      0.3963
          43   1  1     -0.4634
          43   1  5      0.4414
          44   1  1     -0.4972
          44   1  5      0.4752
          45   1  1     -0.5224
          45   1  5      0.5004
          46   1  1     -0.5414
          46   1  5      0.5195
          47   1  1     -0.5564
          47   1  5      0.5351
          48   1  1     -0.5691
          48   1  5      0.5494
          49   1  1     -0.5805
          49   1  5      0.5649
          50   1  1     -0.5925
          50   1  5      0.5828
          51   1  1     -0.6084
          51   1  5      0.6023
          52   1  1     -0.6297
          52   1  5      0.6238
          53   1  1     -0.6565
          53   1  5      0.6488
          54   1  1     -0.6885
          54   1  5      0.6782
          55   1  1     -0.7256
          55   1  5      0.7127
          56   1  1     -0.7674
          56   1  5      0.7523
          57   1  1     -0.8135
          57   1  5      0.7966
          58   1  1     -0.8634
          58   1  5      0.8449
          59   1  1     -0.9160
          59   1  5      0.8963
          60   1  1     -0.9702
          60   1  5      0.9496
          61   1  1      -1.025
          61   1  5       1.003
          62   1  1      -1.077
          62   1  5       1.056
          63   1  1      -1.127
          63   1  5       1.105
          64   1  1      -1.170
          64   1  5       1.148
          65   1  1      -1.205
          65   1  5       1.183
          66   1  1      -1.229
          66   1  5       1.207
          67   1  1      -1.239
          67   1  5       1.216
          68   1  1      -1.231
          68   1  5       1.208
          69   1  1      -1.200
          69   1  5       1.178
          70   1  1      -1.144
          70   1  5       1.121
          71   1  1      -1.057
          71   1  5       1.034
          72   1  1     -0.9342
          72   1  5      0.9117
          73   1  1     -0.7711
          73   1  5      0.7487
          74   1  1     -0.5629
          74   1  5      0.5405
          75   1  1     -0.3055
          75   1  5      0.2832
          76   1  1      3.1310E-03
          76   1  5     -2.5353E-02
          77   1  1      0.3624
          77   1  5     -0.3846
          78   1  1      0.7668
          78   1  5     -0.7891
          79   1  1       1.204
          79   1  5      -1.226
          80   1  1       1.651
          80   1  5      -1.673

 MAXIMUM                 1.651                                                                                                    
 ELEMENT                       80                                                                                                 

 MINIMUM                -1.673                                                                                                    
 ELEMENT                       80                                                                                                 
  
  
  
                                        E N E R G Y   O U T P U T
  
  
  
  
  
   THE FOLLOWING TABLE IS PRINTED FOR ELEMENT SET ELSET_BEAM
          APPROXIMATE ENERGY TOTALS -
            KINETIC ENERGY                            0.00    
            RECOVERABLE STRAIN ENERGY                3.548E-02
            PLASTIC DISSIPATION                       0.00    
            CREEP DISSIPATION                         0.00    
            VISCOUS DISSIPATION (IN DAMPERS ETC)      0.00    
            STATIC DISSIPATION (STABILIZATION)        0.00    
            ENERGY TO CONTROL SPURIOUS MODES          0.00    
            ELECTROSTATIC ENERGY                      0.00    
            ENERGY DUE TO ELECTRICAL CURRENT          0.00    
            DAMAGE DISSIPATION                        0.00    
            TOTAL STRAIN ENERGY (STRESS POWER)       3.548E-02
  
  
  
  
                                       N O D E   O U T P U T
  
  
  
  
   THE FOLLOWING TABLE IS PRINTED FOR NODES BELONGING TO NODE SET NSET_ANCHOR
  
       NODE FOOT-   RF1         RF2         RM3      
            NOTE
  
          1     -3.3416E-04  1.9890E-03  0.2345     
         42      2.7039E-02  4.3671E-03  0.1005     

 TOTAL         2.6705E-02  6.3561E-03  0.3350    
  
  
  
   THE FOLLOWING TABLE IS PRINTED FOR NODES BELONGING TO NODE SET NSET_MONITOR
  
       NODE FOOT-   U1          U2          UR3         RF1         RF2         RM3      
            NOTE
  
         41       0.000      -10.00       0.000      3.3416E-04 -1.9890E-03  0.2076     
  
  
  
   THE FOLLOWING TABLE IS PRINTED FOR NODES BELONGING TO NODE SET NSET_UPPER
  
       NODE FOOT-   COOR1       COOR2       U1          U2          UR3      
            NOTE
  
          1       0.000       20.15       0.000       0.000       0.000     
          2       10.48       24.02      1.0928E-02 -2.9456E-02 -5.5704E-03 
          3       19.12       26.92      3.3412E-02 -9.5518E-02 -9.7060E-03 
          4       26.10       29.23      5.9885E-02 -0.1739     -1.2773E-02 
          5       31.60       31.29      8.9070E-02 -0.2503     -1.5050E-02 
          6       35.79       33.39      0.1230     -0.3167     -1.6761E-02 
          7       38.85       35.79      0.1652     -0.3697     -1.8109E-02 
          8       40.93       38.70      0.2201     -0.4082     -1.9304E-02 
          9       42.20       42.31      0.2923     -0.4327     -2.0543E-02 
         10       42.79       46.77      0.3873     -0.4443     -2.1968E-02 
         11       42.85       52.20      0.5111     -0.4442     -2.3658E-02 
         12       42.51       58.67      0.6705     -0.4338     -2.5651E-02 
         13       41.88       66.22      0.8727     -0.4144     -2.7959E-02 
         14       41.10       74.87       1.125     -0.3876     -3.0578E-02 
         15       40.25       84.59       1.436     -0.3555     -3.3489E-02 
         16       39.44       95.32       1.812     -0.3206     -3.6657E-02 
         17       38.77       107.0       2.258     -0.2861     -4.0034E-02 
         18       38.30       119.4       2.778     -0.2558     -4.3559E-02 
         19       38.12       132.5       3.372     -0.2341     -4.7158E-02 
         20       38.28       146.1       4.035     -0.2259     -5.0749E-02 
         21       38.85       159.9       4.760     -0.2367     -5.4246E-02 
         22       39.87       173.7       5.534     -0.2719     -5.7562E-02 
         23       41.38       187.3       6.338     -0.3373     -6.0614E-02 
         24       43.41       200.3       7.150     -0.4381     -6.3328E-02 
         25       46.00       212.5       7.942     -0.5797     -6.5650E-02 
         26       49.18       223.6       8.685     -0.7668     -6.7542E-02 
         27       52.98       233.1       9.346      -1.004     -6.8997E-02 
         28       57.44       240.8       9.893      -1.295     -7.0036E-02 
         29       62.61       246.4       10.29      -1.645     -7.0719E-02 
         30       68.54       249.3       10.52      -2.058     -7.1133E-02 
         31       75.31       249.3       10.54      -2.540     -7.1357E-02 
         32       82.99       246.0       10.32      -3.096     -7.1377E-02 
         33       91.70       239.0       9.842      -3.734     -7.1039E-02 
         34       101.6       227.9       9.085      -4.456     -7.0080E-02 
         35       112.7       212.4       8.040      -5.264     -6.8143E-02 
         36       125.4       192.1       6.721      -6.151     -6.4774E-02 
         37       139.8       166.8       5.174      -7.096     -5.9403E-02 
         38       156.4       136.1       3.498      -8.061     -5.1311E-02 
         39       175.5       99.79       1.865      -8.969     -3.9578E-02 
         40       197.7       57.82      0.5568      -9.690     -2.3006E-02 
         41       223.9       10.15       0.000      -10.00       0.000     

 MAXIMUM          223.9       249.3       10.54       0.000       0.000    
 AT NODE                41          31          31           1           1

 MINIMUM          0.000       10.15       0.000      -10.00     -7.1377E-02
 AT NODE                 1          41           1          41          32

 TOTAL          2673.       5229.       166.4      -83.57      -1.739    


          THE ANALYSIS HAS BEEN COMPLETED



                              ANALYSIS COMPLETE
                              WITH      9 WARNING MESSAGES ON THE DAT FILE
                              AND       1 WARNING MESSAGES ON THE MSG FILE



     JOB TIME SUMMARY
       USER TIME (SEC)      =   3.5000    
       SYSTEM TIME (SEC)    =  0.90000    
       TOTAL CPU TIME (SEC) =   4.4000    
       WALLCLOCK TIME (SEC) =          6
